*SPEF "1481-1998"
*DESIGN "top"
*DATE "Sat Nov  8 13:14:01 2025"
*VENDOR "Synopsys, Inc."
*PROGRAM "icc2 /packages/synopsys/icc2/S-2021.06-SP5-1/linux64/nwtn/bin/icc2_exec"
*VERSION "S-2021.06-SP5-1 Oct 15, 2022"
*DESIGN_FLOW "ICC2 SPEF DR"
*DIVIDER /
*DELIMITER :
*BUS_DELIMITER [ ]
*T_UNIT 1 NS
*C_UNIT 1 FF
*R_UNIT 1 OHM
*L_UNIT 1 HENRY

// XY_UNIT 1 UM
// PARASITIC_TECH tlup_max at 125.000 degree

*NAME_MAP
*1 clock
*2 start
*3 BestDist[7]
*4 BestDist[6]
*5 BestDist[5]
*6 BestDist[4]
*7 BestDist[3]
*8 BestDist[2]
*9 BestDist[1]
*10 BestDist[0]
*11 motionX[3]
*12 motionX[2]
*13 motionX[1]
*14 motionX[0]
*15 motionY[3]
*16 motionY[2]
*17 motionY[1]
*18 motionY[0]
*19 AddressR[7]
*20 AddressR[6]
*21 AddressR[5]
*22 AddressR[4]
*23 AddressR[3]
*24 AddressR[2]
*25 AddressR[1]
*26 AddressR[0]
*27 AddressS1[9]
*28 AddressS1[8]
*29 AddressS1[7]
*30 AddressS1[6]
*31 AddressS1[5]
*32 AddressS1[4]
*33 AddressS1[3]
*34 AddressS1[2]
*35 AddressS1[1]
*36 AddressS1[0]
*37 AddressS2[9]
*38 AddressS2[8]
*39 AddressS2[7]
*40 AddressS2[6]
*41 AddressS2[5]
*42 AddressS2[4]
*43 AddressS2[3]
*44 AddressS2[2]
*45 AddressS2[1]
*46 AddressS2[0]
*47 R[7]
*48 R[6]
*49 R[5]
*50 R[4]
*51 R[3]
*52 R[2]
*53 R[1]
*54 R[0]
*55 S1[7]
*56 S1[6]
*57 S1[5]
*58 S1[4]
*59 S1[3]
*60 S1[2]
*61 S1[1]
*62 S1[0]
*63 S2[7]
*64 S2[6]
*65 S2[5]
*66 S2[4]
*67 S2[3]
*68 S2[2]
*69 S2[1]
*70 S2[0]
*71 completed
*72 VDD
*73 VSS
*74 optlc_2550
*75 optlc_2551
*76 ctl_u/U4
*77 ctl_u/U5
*78 ctl_u/U8
*79 ctl_u/U9
*80 ctl_u/U11
*81 ctl_u/U17
*82 ctl_u/U19
*83 ctl_u/U21
*84 ctl_u/U23
*85 ctl_u/U24
*86 ctl_u/U25
*87 ctl_u/U27
*88 ctl_u/U29
*89 ctl_u/U34
*90 ctl_u/U35
*91 ctl_u/U36
*92 ctl_u/U40
*93 ctl_u/U41
*94 ctl_u/U43
*95 ctl_u/U44
*96 ctl_u/U46
*97 ctl_u/U47
*98 ctl_u/U50
*99 ctl_u/U53
*100 ctl_u/U54
*101 ctl_u/U55
*102 ctl_u/U56
*103 ctl_u/U61
*104 ctl_u/count_reg[12]
*105 ctl_u/count_reg[3]
*106 ctl_u/count_reg[2]
*107 ctl_u/count_reg[1]
*108 ctl_u/count_reg[0]
*109 ctl_u/count_reg[10]
*110 ctl_u/count_reg[5]
*111 ctl_u/count_reg[6]
*112 ctl_u/count_reg[7]
*113 ctl_u/count_reg[11]
*114 ctl_u/count_reg[9]
*115 ctl_u/count_reg[4]
*116 ctl_u/count_reg[8]
*117 ctl_u/add_121/U1_3
*118 ctl_u/add_118/U1_3
*119 ctl_u/add_121/U1_2
*120 ctl_u/add_118/U1_1
*121 ctl_u/add_118/U1_2
*122 ctl_u/add_121/U1_1
*123 ctl_u/U3
*124 ctl_u/U6
*125 ctl_u/U7
*126 ctl_u/U10
*127 ctl_u/U12
*128 ctl_u/U13
*129 ctl_u/U14
*130 ctl_u/U15
*131 ctl_u/U16
*132 ctl_u/U18
*133 ctl_u/U20
*134 ctl_u/U22
*135 ctl_u/U26
*136 ctl_u/U28
*137 ctl_u/U30
*138 ctl_u/U31
*139 ctl_u/U32
*140 ctl_u/U33
*141 ctl_u/U37
*142 ctl_u/U38
*143 ctl_u/U39
*144 ctl_u/U42
*145 ctl_u/ctmTdsLR_2_2540_roptpi_2548
*146 ctl_u/U48
*147 ctl_u/U49
*148 ctl_u/U51
*149 ctl_u/U52
*150 ctl_u/U57
*151 ctl_u/U58
*152 ctl_u/U59
*153 ctl_u/U60
*154 ctl_u/U62
*155 ctl_u/U63
*156 ctl_u/U64
*157 ctl_u/ctmTdsLR_2_2542_roptpi_2549
*158 ctl_u/ctmTdsLR_3_2545
*159 ctl_u/U66
*160 ctl_u/U67
*161 ctl_u/U68
*162 ctl_u/U69
*163 ctl_u/U70
*164 ctl_u/U71
*165 ctl_u/U72
*166 ctl_u/U73
*167 ctl_u/U74
*168 ctl_u/U75
*169 ctl_u/U76
*170 ctl_u/U77
*171 ctl_u/U78
*172 ctl_u/U79
*173 ctl_u/U80
*174 ctl_u/U81
*175 ctl_u/U82
*176 ctl_u/ctmTdsLR_1_0
*177 ctl_u/U84
*178 ctl_u/U85
*179 ctl_u/U86
*180 ctl_u/U87
*181 optlc_2554
*182 optlc_2556
*183 ctl_u/U90
*184 ctl_u/U91
*185 ctl_u/U92
*186 ctl_u/U93
*187 ctl_u/U94
*188 ctl_u/U95
*189 ctl_u/U96
*190 ctl_u/U97
*191 ctl_u/U98
*192 ctl_u/U99
*193 ctl_u/U100
*194 ctl_u/U101
*195 ctl_u/U102
*196 ctl_u/add_108/U1_1_2
*197 ctl_u/add_108/U1_1_1
*198 ctl_u/add_108/U1_1_10
*199 ctl_u/add_108/U1_1_5
*200 ctl_u/add_108/U1_1_6
*201 ctl_u/add_108/U1_1_7
*202 ctl_u/add_108/U1_1_11
*203 ctl_u/add_108/U1_1_9
*204 ctl_u/add_108/U1_1_4
*205 ctl_u/add_108/U1_1_8
*206 ctl_u/add_108/U1_1_3
*207 ctl_u/add_108/U1
*208 ctl_u/add_108/U2
*209 pe_u/pe0/Accumulate_reg[0]
*210 pe_u/pe0/Accumulate_reg[7]
*211 pe_u/pe0/Accumulate_reg[6]
*212 pe_u/pe0/Accumulate_reg[5]
*213 pe_u/pe0/Accumulate_reg[4]
*214 pe_u/pe0/Accumulate_reg[3]
*215 pe_u/pe0/Accumulate_reg[2]
*216 pe_u/pe0/Accumulate_reg[1]
*217 pe_u/pe0/U15
*218 pe_u/pe0/U16
*219 pe_u/pe0/U17
*220 pe_u/pe0/U18
*221 pe_u/pe0/U19
*222 pe_u/pe0/U20
*223 pe_u/pe0/U21
*224 pe_u/pe0/U22
*225 pe_u/pe0/Rpipe_reg[7]
*226 pe_u/pe0/Rpipe_reg[6]
*227 pe_u/pe0/Rpipe_reg[5]
*228 pe_u/pe0/Rpipe_reg[4]
*229 pe_u/pe0/Rpipe_reg[3]
*230 pe_u/pe0/Rpipe_reg[2]
*231 pe_u/pe0/Rpipe_reg[1]
*232 pe_u/pe0/Rpipe_reg[0]
*233 pe_u/pe0/U3
*234 pe_u/pe0/U4
*235 pe_u/pe0/U5
*236 pe_u/pe0/U6
*237 pe_u/pe0/U7
*238 pe_u/pe0/U8
*239 pe_u/pe0/U9
*240 pe_u/pe0/U10
*241 pe_u/pe0/U11
*242 pe_u/pe0/U12
*243 pe_u/pe0/add_47/U1_7
*244 pe_u/pe0/add_47/U1_6
*245 pe_u/pe0/add_47/U1_5
*246 pe_u/pe0/add_47/U1_4
*247 pe_u/pe0/add_47/U1_3
*248 pe_u/pe0/add_47/U1_2
*249 pe_u/pe0/add_47/U1_1
*250 pe_u/pe0/add_47/U1
*251 pe_u/pe0/add_47/U2
*252 pe_u/pe0/sub_41/U2_7
*253 pe_u/pe0/sub_41/U2_6
*254 pe_u/pe0/sub_41/U2_5
*255 pe_u/pe0/sub_41/U2_4
*256 pe_u/pe0/sub_41/U2_3
*257 pe_u/pe0/sub_41/U2_2
*258 pe_u/pe0/sub_41/U2_1
*259 pe_u/pe0/sub_41/U1
*260 pe_u/pe0/sub_41/U2
*261 pe_u/pe0/sub_41/U3
*262 pe_u/pe0/sub_41/U4
*263 pe_u/pe0/sub_41/U5
*264 pe_u/pe0/sub_41/U6
*265 pe_u/pe0/sub_41/U7
*266 pe_u/pe0/sub_41/U8
*267 pe_u/pe0/sub_41/U9
*268 pe_u/pe0/sub_41/U10
*269 pe_u/pe1/Accumulate_reg[0]
*270 pe_u/pe1/Accumulate_reg[7]
*271 pe_u/pe1/Accumulate_reg[6]
*272 pe_u/pe1/Accumulate_reg[5]
*273 pe_u/pe1/Accumulate_reg[4]
*274 pe_u/pe1/Accumulate_reg[3]
*275 pe_u/pe1/Accumulate_reg[2]
*276 pe_u/pe1/Accumulate_reg[1]
*277 pe_u/pe1/U15
*278 pe_u/pe1/U16
*279 pe_u/pe1/U17
*280 pe_u/pe1/U18
*281 pe_u/pe1/U19
*282 pe_u/pe1/U20
*283 pe_u/pe1/U21
*284 pe_u/pe1/U22
*285 pe_u/pe1/Rpipe_reg[7]
*286 pe_u/pe1/Rpipe_reg[6]
*287 pe_u/pe1/Rpipe_reg[5]
*288 pe_u/pe1/Rpipe_reg[4]
*289 pe_u/pe1/Rpipe_reg[3]
*290 pe_u/pe1/Rpipe_reg[2]
*291 pe_u/pe1/Rpipe_reg[1]
*292 pe_u/pe1/Rpipe_reg[0]
*293 pe_u/pe1/U3
*294 pe_u/pe1/U4
*295 pe_u/pe1/U5
*296 pe_u/pe1/U6
*297 pe_u/pe1/U7
*298 pe_u/pe1/U8
*299 pe_u/pe1/U9
*300 pe_u/pe1/U10
*301 pe_u/pe1/U11
*302 pe_u/pe1/U12
*303 pe_u/pe1/add_47/U1_7
*304 pe_u/pe1/add_47/U1_6
*305 pe_u/pe1/add_47/U1_5
*306 pe_u/pe1/add_47/U1_4
*307 pe_u/pe1/add_47/U1_3
*308 pe_u/pe1/add_47/U1_2
*309 pe_u/pe1/add_47/U1_1
*310 pe_u/pe1/add_47/U1
*311 pe_u/pe1/add_47/U2
*312 pe_u/pe1/sub_41/U2_7
*313 pe_u/pe1/sub_41/U2_6
*314 pe_u/pe1/sub_41/U2_5
*315 pe_u/pe1/sub_41/U2_4
*316 pe_u/pe1/sub_41/U2_3
*317 pe_u/pe1/sub_41/U2_2
*318 pe_u/pe1/sub_41/U2_1
*319 pe_u/pe1/sub_41/U1
*320 pe_u/pe1/sub_41/U2
*321 pe_u/pe1/sub_41/U3
*322 pe_u/pe1/sub_41/U4
*323 pe_u/pe1/sub_41/U5
*324 pe_u/pe1/sub_41/U6
*325 pe_u/pe1/sub_41/U7
*326 pe_u/pe1/sub_41/U8
*327 pe_u/pe1/sub_41/U9
*328 pe_u/pe1/sub_41/U10
*329 pe_u/pe2/Accumulate_reg[0]
*330 pe_u/pe2/Accumulate_reg[7]
*331 pe_u/pe2/Accumulate_reg[6]
*332 pe_u/pe2/Accumulate_reg[5]
*333 pe_u/pe2/Accumulate_reg[4]
*334 pe_u/pe2/Accumulate_reg[3]
*335 pe_u/pe2/Accumulate_reg[2]
*336 pe_u/pe2/Accumulate_reg[1]
*337 pe_u/pe2/U15
*338 pe_u/pe2/U16
*339 pe_u/pe2/U17
*340 pe_u/pe2/U18
*341 pe_u/pe2/U19
*342 pe_u/pe2/U20
*343 pe_u/pe2/U21
*344 pe_u/pe2/U22
*345 pe_u/pe2/Rpipe_reg[7]
*346 pe_u/pe2/Rpipe_reg[6]
*347 pe_u/pe2/Rpipe_reg[5]
*348 pe_u/pe2/Rpipe_reg[4]
*349 pe_u/pe2/Rpipe_reg[3]
*350 pe_u/pe2/Rpipe_reg[2]
*351 pe_u/pe2/Rpipe_reg[1]
*352 pe_u/pe2/Rpipe_reg[0]
*353 pe_u/pe2/U3
*354 pe_u/pe2/U4
*355 pe_u/pe2/U5
*356 pe_u/pe2/U6
*357 pe_u/pe2/U7
*358 pe_u/pe2/U8
*359 pe_u/pe2/U9
*360 pe_u/pe2/U10
*361 pe_u/pe2/U11
*362 pe_u/pe2/U12
*363 pe_u/pe2/add_47/U1_7
*364 pe_u/pe2/add_47/U1_6
*365 pe_u/pe2/add_47/U1_5
*366 pe_u/pe2/add_47/U1_4
*367 pe_u/pe2/add_47/U1_3
*368 pe_u/pe2/add_47/U1_2
*369 pe_u/pe2/add_47/U1_1
*370 pe_u/pe2/add_47/U1
*371 pe_u/pe2/add_47/U2
*372 pe_u/pe2/sub_41/U2_7
*373 pe_u/pe2/sub_41/U2_6
*374 pe_u/pe2/sub_41/U2_5
*375 pe_u/pe2/sub_41/U2_4
*376 pe_u/pe2/sub_41/U2_3
*377 pe_u/pe2/sub_41/U2_2
*378 pe_u/pe2/sub_41/U2_1
*379 pe_u/pe2/sub_41/U1
*380 pe_u/pe2/sub_41/U2
*381 pe_u/pe2/sub_41/U3
*382 pe_u/pe2/sub_41/U4
*383 pe_u/pe2/sub_41/U5
*384 pe_u/pe2/sub_41/U6
*385 pe_u/pe2/sub_41/U7
*386 pe_u/pe2/sub_41/U8
*387 pe_u/pe2/sub_41/U9
*388 pe_u/pe2/sub_41/U10
*389 pe_u/pe3/Accumulate_reg[0]
*390 pe_u/pe3/Accumulate_reg[7]
*391 pe_u/pe3/Accumulate_reg[6]
*392 pe_u/pe3/Accumulate_reg[5]
*393 pe_u/pe3/Accumulate_reg[4]
*394 pe_u/pe3/Accumulate_reg[3]
*395 pe_u/pe3/Accumulate_reg[2]
*396 pe_u/pe3/Accumulate_reg[1]
*397 pe_u/pe3/U15
*398 pe_u/pe3/U16
*399 pe_u/pe3/U17
*400 pe_u/pe3/U18
*401 pe_u/pe3/U19
*402 pe_u/pe3/U20
*403 pe_u/pe3/U21
*404 pe_u/pe3/U22
*405 pe_u/pe3/Rpipe_reg[7]
*406 pe_u/pe3/Rpipe_reg[6]
*407 pe_u/pe3/Rpipe_reg[5]
*408 pe_u/pe3/Rpipe_reg[4]
*409 pe_u/pe3/Rpipe_reg[3]
*410 pe_u/pe3/Rpipe_reg[2]
*411 pe_u/pe3/Rpipe_reg[1]
*412 pe_u/pe3/Rpipe_reg[0]
*413 pe_u/pe3/U3
*414 pe_u/pe3/U4
*415 pe_u/pe3/U5
*416 pe_u/pe3/U6
*417 pe_u/pe3/U7
*418 pe_u/pe3/U8
*419 pe_u/pe3/U9
*420 pe_u/pe3/U10
*421 pe_u/pe3/U11
*422 pe_u/pe3/U12
*423 pe_u/pe3/add_47/U1_7
*424 pe_u/pe3/add_47/U1_6
*425 pe_u/pe3/add_47/U1_5
*426 pe_u/pe3/add_47/U1_4
*427 pe_u/pe3/add_47/U1_3
*428 pe_u/pe3/add_47/U1_2
*429 pe_u/pe3/add_47/U1_1
*430 pe_u/pe3/add_47/U1
*431 pe_u/pe3/add_47/U2
*432 pe_u/pe3/sub_41/U2_7
*433 pe_u/pe3/sub_41/U2_6
*434 pe_u/pe3/sub_41/U2_5
*435 pe_u/pe3/sub_41/U2_4
*436 pe_u/pe3/sub_41/U2_3
*437 pe_u/pe3/sub_41/U2_2
*438 pe_u/pe3/sub_41/U2_1
*439 pe_u/pe3/sub_41/U1
*440 pe_u/pe3/sub_41/U2
*441 pe_u/pe3/sub_41/U3
*442 pe_u/pe3/sub_41/U4
*443 pe_u/pe3/sub_41/U5
*444 pe_u/pe3/sub_41/U6
*445 pe_u/pe3/sub_41/U7
*446 pe_u/pe3/sub_41/U8
*447 pe_u/pe3/sub_41/U9
*448 pe_u/pe3/sub_41/U10
*449 pe_u/pe4/Accumulate_reg[0]
*450 pe_u/pe4/Accumulate_reg[7]
*451 pe_u/pe4/Accumulate_reg[6]
*452 pe_u/pe4/Accumulate_reg[5]
*453 pe_u/pe4/Accumulate_reg[4]
*454 pe_u/pe4/Accumulate_reg[3]
*455 pe_u/pe4/Accumulate_reg[2]
*456 pe_u/pe4/Accumulate_reg[1]
*457 pe_u/pe4/U15
*458 pe_u/pe4/U16
*459 pe_u/pe4/U17
*460 pe_u/pe4/U18
*461 pe_u/pe4/U19
*462 pe_u/pe4/U20
*463 pe_u/pe4/U21
*464 pe_u/pe4/U22
*465 pe_u/pe4/Rpipe_reg[7]
*466 pe_u/pe4/Rpipe_reg[6]
*467 pe_u/pe4/Rpipe_reg[5]
*468 pe_u/pe4/Rpipe_reg[4]
*469 pe_u/pe4/Rpipe_reg[3]
*470 pe_u/pe4/Rpipe_reg[2]
*471 pe_u/pe4/Rpipe_reg[1]
*472 pe_u/pe4/Rpipe_reg[0]
*473 pe_u/pe4/U3
*474 pe_u/pe4/U4
*475 pe_u/pe4/U5
*476 pe_u/pe4/U6
*477 pe_u/pe4/U7
*478 pe_u/pe4/U8
*479 pe_u/pe4/U9
*480 pe_u/pe4/U10
*481 pe_u/pe4/U11
*482 pe_u/pe4/U12
*483 pe_u/pe4/add_47/U1_7
*484 pe_u/pe4/add_47/U1_6
*485 pe_u/pe4/add_47/U1_5
*486 pe_u/pe4/add_47/U1_4
*487 pe_u/pe4/add_47/U1_3
*488 pe_u/pe4/add_47/U1_2
*489 pe_u/pe4/add_47/U1_1
*490 pe_u/pe4/add_47/U1
*491 pe_u/pe4/add_47/U2
*492 pe_u/pe4/sub_41/U2_7
*493 pe_u/pe4/sub_41/U2_6
*494 pe_u/pe4/sub_41/U2_5
*495 pe_u/pe4/sub_41/U2_4
*496 pe_u/pe4/sub_41/U2_3
*497 pe_u/pe4/sub_41/U2_2
*498 pe_u/pe4/sub_41/U2_1
*499 pe_u/pe4/sub_41/U1
*500 pe_u/pe4/sub_41/U2
*501 pe_u/pe4/sub_41/U3
*502 pe_u/pe4/sub_41/U4
*503 pe_u/pe4/sub_41/U5
*504 pe_u/pe4/sub_41/U6
*505 pe_u/pe4/sub_41/U7
*506 pe_u/pe4/sub_41/U8
*507 pe_u/pe4/sub_41/U9
*508 pe_u/pe4/sub_41/U10
*509 pe_u/pe5/Accumulate_reg[0]
*510 pe_u/pe5/Accumulate_reg[7]
*511 pe_u/pe5/Accumulate_reg[6]
*512 pe_u/pe5/Accumulate_reg[5]
*513 pe_u/pe5/Accumulate_reg[4]
*514 pe_u/pe5/Accumulate_reg[3]
*515 pe_u/pe5/Accumulate_reg[2]
*516 pe_u/pe5/Accumulate_reg[1]
*517 pe_u/pe5/U15
*518 pe_u/pe5/U16
*519 pe_u/pe5/U17
*520 pe_u/pe5/U18
*521 pe_u/pe5/U19
*522 pe_u/pe5/U20
*523 pe_u/pe5/U21
*524 pe_u/pe5/U22
*525 pe_u/pe5/Rpipe_reg[7]
*526 pe_u/pe5/Rpipe_reg[6]
*527 pe_u/pe5/Rpipe_reg[5]
*528 pe_u/pe5/Rpipe_reg[4]
*529 pe_u/pe5/Rpipe_reg[3]
*530 pe_u/pe5/Rpipe_reg[2]
*531 pe_u/pe5/Rpipe_reg[1]
*532 pe_u/pe5/Rpipe_reg[0]
*533 pe_u/pe5/U3
*534 pe_u/pe5/U4
*535 pe_u/pe5/U5
*536 pe_u/pe5/U6
*537 pe_u/pe5/U7
*538 pe_u/pe5/U8
*539 pe_u/pe5/U9
*540 pe_u/pe5/U10
*541 pe_u/pe5/U11
*542 pe_u/pe5/U12
*543 pe_u/pe5/add_47/U1_7
*544 pe_u/pe5/add_47/U1_6
*545 pe_u/pe5/add_47/U1_5
*546 pe_u/pe5/add_47/U1_4
*547 pe_u/pe5/add_47/U1_3
*548 pe_u/pe5/add_47/U1_2
*549 pe_u/pe5/add_47/U1_1
*550 pe_u/pe5/add_47/U1
*551 pe_u/pe5/add_47/U2
*552 pe_u/pe5/sub_41/U2_7
*553 pe_u/pe5/sub_41/U2_6
*554 pe_u/pe5/sub_41/U2_5
*555 pe_u/pe5/sub_41/U2_4
*556 pe_u/pe5/sub_41/U2_3
*557 pe_u/pe5/sub_41/U2_2
*558 pe_u/pe5/sub_41/U2_1
*559 pe_u/pe5/sub_41/U1
*560 pe_u/pe5/sub_41/U2
*561 pe_u/pe5/sub_41/U3
*562 pe_u/pe5/sub_41/U4
*563 pe_u/pe5/sub_41/U5
*564 pe_u/pe5/sub_41/U6
*565 pe_u/pe5/sub_41/U7
*566 pe_u/pe5/sub_41/U8
*567 pe_u/pe5/sub_41/U9
*568 pe_u/pe5/sub_41/U10
*569 pe_u/pe6/Accumulate_reg[0]
*570 pe_u/pe6/Accumulate_reg[7]
*571 pe_u/pe6/Accumulate_reg[6]
*572 pe_u/pe6/Accumulate_reg[5]
*573 pe_u/pe6/Accumulate_reg[4]
*574 pe_u/pe6/Accumulate_reg[3]
*575 pe_u/pe6/Accumulate_reg[2]
*576 pe_u/pe6/Accumulate_reg[1]
*577 pe_u/pe6/U15
*578 pe_u/pe6/U16
*579 pe_u/pe6/U17
*580 pe_u/pe6/U18
*581 pe_u/pe6/U19
*582 pe_u/pe6/U20
*583 pe_u/pe6/U21
*584 pe_u/pe6/U22
*585 pe_u/pe6/Rpipe_reg[7]
*586 pe_u/pe6/Rpipe_reg[6]
*587 pe_u/pe6/Rpipe_reg[5]
*588 pe_u/pe6/Rpipe_reg[4]
*589 pe_u/pe6/Rpipe_reg[3]
*590 pe_u/pe6/Rpipe_reg[2]
*591 pe_u/pe6/Rpipe_reg[1]
*592 pe_u/pe6/Rpipe_reg[0]
*593 pe_u/pe6/U3
*594 pe_u/pe6/U4
*595 pe_u/pe6/U5
*596 pe_u/pe6/U6
*597 pe_u/pe6/U7
*598 pe_u/pe6/U8
*599 pe_u/pe6/U9
*600 pe_u/pe6/U10
*601 pe_u/pe6/U11
*602 pe_u/pe6/U12
*603 pe_u/pe6/add_47/U1_7
*604 pe_u/pe6/add_47/U1_6
*605 pe_u/pe6/add_47/U1_5
*606 pe_u/pe6/add_47/U1_4
*607 pe_u/pe6/add_47/U1_3
*608 pe_u/pe6/add_47/U1_2
*609 pe_u/pe6/add_47/U1_1
*610 pe_u/pe6/add_47/U1
*611 pe_u/pe6/add_47/U2
*612 pe_u/pe6/sub_41/U2_7
*613 pe_u/pe6/sub_41/U2_6
*614 pe_u/pe6/sub_41/U2_5
*615 pe_u/pe6/sub_41/U2_4
*616 pe_u/pe6/sub_41/U2_3
*617 pe_u/pe6/sub_41/U2_2
*618 pe_u/pe6/sub_41/U2_1
*619 pe_u/pe6/sub_41/U1
*620 pe_u/pe6/sub_41/U2
*621 pe_u/pe6/sub_41/U3
*622 pe_u/pe6/sub_41/U4
*623 pe_u/pe6/sub_41/U5
*624 pe_u/pe6/sub_41/U6
*625 pe_u/pe6/sub_41/U7
*626 pe_u/pe6/sub_41/U8
*627 pe_u/pe6/sub_41/U9
*628 pe_u/pe6/sub_41/U10
*629 pe_u/pe7/Accumulate_reg[0]
*630 pe_u/pe7/Accumulate_reg[7]
*631 pe_u/pe7/Accumulate_reg[6]
*632 pe_u/pe7/Accumulate_reg[5]
*633 pe_u/pe7/Accumulate_reg[4]
*634 pe_u/pe7/Accumulate_reg[3]
*635 pe_u/pe7/Accumulate_reg[2]
*636 pe_u/pe7/Accumulate_reg[1]
*637 pe_u/pe7/U15
*638 pe_u/pe7/U16
*639 pe_u/pe7/U17
*640 pe_u/pe7/U18
*641 pe_u/pe7/U19
*642 pe_u/pe7/U20
*643 pe_u/pe7/U21
*644 pe_u/pe7/U22
*645 pe_u/pe7/Rpipe_reg[7]
*646 pe_u/pe7/Rpipe_reg[6]
*647 pe_u/pe7/Rpipe_reg[5]
*648 pe_u/pe7/Rpipe_reg[4]
*649 pe_u/pe7/Rpipe_reg[3]
*650 pe_u/pe7/Rpipe_reg[2]
*651 pe_u/pe7/Rpipe_reg[1]
*652 pe_u/pe7/Rpipe_reg[0]
*653 pe_u/pe7/U3
*654 pe_u/pe7/U4
*655 pe_u/pe7/U5
*656 pe_u/pe7/U6
*657 pe_u/pe7/U7
*658 pe_u/pe7/U8
*659 pe_u/pe7/U9
*660 pe_u/pe7/U10
*661 pe_u/pe7/U11
*662 pe_u/pe7/U12
*663 pe_u/pe7/add_47/U1_7
*664 pe_u/pe7/add_47/U1_6
*665 pe_u/pe7/add_47/U1_5
*666 pe_u/pe7/add_47/U1_4
*667 pe_u/pe7/add_47/U1_3
*668 pe_u/pe7/add_47/U1_2
*669 pe_u/pe7/add_47/U1_1
*670 pe_u/pe7/add_47/U1
*671 pe_u/pe7/add_47/U2
*672 pe_u/pe7/sub_41/U2_7
*673 pe_u/pe7/sub_41/U2_6
*674 pe_u/pe7/sub_41/U2_5
*675 pe_u/pe7/sub_41/U2_4
*676 pe_u/pe7/sub_41/U2_3
*677 pe_u/pe7/sub_41/U2_2
*678 pe_u/pe7/sub_41/U2_1
*679 pe_u/pe7/sub_41/U1
*680 pe_u/pe7/sub_41/U2
*681 pe_u/pe7/sub_41/U3
*682 pe_u/pe7/sub_41/U4
*683 pe_u/pe7/sub_41/U5
*684 pe_u/pe7/sub_41/U6
*685 pe_u/pe7/sub_41/U7
*686 pe_u/pe7/sub_41/U8
*687 pe_u/pe7/sub_41/U9
*688 pe_u/pe7/sub_41/U10
*689 pe_u/pe8/Accumulate_reg[0]
*690 pe_u/pe8/Accumulate_reg[7]
*691 pe_u/pe8/Accumulate_reg[6]
*692 pe_u/pe8/Accumulate_reg[5]
*693 pe_u/pe8/Accumulate_reg[4]
*694 pe_u/pe8/Accumulate_reg[3]
*695 pe_u/pe8/Accumulate_reg[2]
*696 pe_u/pe8/Accumulate_reg[1]
*697 pe_u/pe8/U15
*698 pe_u/pe8/U16
*699 pe_u/pe8/U17
*700 pe_u/pe8/U18
*701 pe_u/pe8/U19
*702 pe_u/pe8/U20
*703 pe_u/pe8/U21
*704 pe_u/pe8/U22
*705 pe_u/pe8/Rpipe_reg[7]
*706 pe_u/pe8/Rpipe_reg[6]
*707 pe_u/pe8/Rpipe_reg[5]
*708 pe_u/pe8/Rpipe_reg[4]
*709 pe_u/pe8/Rpipe_reg[3]
*710 pe_u/pe8/Rpipe_reg[2]
*711 pe_u/pe8/Rpipe_reg[1]
*712 pe_u/pe8/Rpipe_reg[0]
*713 pe_u/pe8/U3
*714 pe_u/pe8/U4
*715 pe_u/pe8/U5
*716 pe_u/pe8/U6
*717 pe_u/pe8/U7
*718 pe_u/pe8/U8
*719 pe_u/pe8/U9
*720 pe_u/pe8/U10
*721 pe_u/pe8/U11
*722 pe_u/pe8/U12
*723 pe_u/pe8/add_47/U1_7
*724 pe_u/pe8/add_47/U1_6
*725 pe_u/pe8/add_47/U1_5
*726 pe_u/pe8/add_47/U1_4
*727 pe_u/pe8/add_47/U1_3
*728 pe_u/pe8/add_47/U1_2
*729 pe_u/pe8/add_47/U1_1
*730 pe_u/pe8/add_47/U1
*731 pe_u/pe8/add_47/U2
*732 pe_u/pe8/sub_41/U2_7
*733 pe_u/pe8/sub_41/U2_6
*734 pe_u/pe8/sub_41/U2_5
*735 pe_u/pe8/sub_41/U2_4
*736 pe_u/pe8/sub_41/U2_3
*737 pe_u/pe8/sub_41/U2_2
*738 pe_u/pe8/sub_41/U2_1
*739 pe_u/pe8/sub_41/U1
*740 pe_u/pe8/sub_41/U2
*741 pe_u/pe8/sub_41/U3
*742 pe_u/pe8/sub_41/U4
*743 pe_u/pe8/sub_41/U5
*744 pe_u/pe8/sub_41/U6
*745 pe_u/pe8/sub_41/U7
*746 pe_u/pe8/sub_41/U8
*747 pe_u/pe8/sub_41/U9
*748 pe_u/pe8/sub_41/U10
*749 pe_u/pe9/Accumulate_reg[0]
*750 pe_u/pe9/Accumulate_reg[7]
*751 pe_u/pe9/Accumulate_reg[6]
*752 pe_u/pe9/Accumulate_reg[5]
*753 pe_u/pe9/Accumulate_reg[4]
*754 pe_u/pe9/Accumulate_reg[3]
*755 pe_u/pe9/Accumulate_reg[2]
*756 pe_u/pe9/Accumulate_reg[1]
*757 pe_u/pe9/U15
*758 pe_u/pe9/U16
*759 pe_u/pe9/U17
*760 pe_u/pe9/U18
*761 pe_u/pe9/U19
*762 pe_u/pe9/U20
*763 pe_u/pe9/U21
*764 pe_u/pe9/U22
*765 pe_u/pe9/Rpipe_reg[7]
*766 pe_u/pe9/Rpipe_reg[6]
*767 pe_u/pe9/Rpipe_reg[5]
*768 pe_u/pe9/Rpipe_reg[4]
*769 pe_u/pe9/Rpipe_reg[3]
*770 pe_u/pe9/Rpipe_reg[2]
*771 pe_u/pe9/Rpipe_reg[1]
*772 pe_u/pe9/Rpipe_reg[0]
*773 pe_u/pe9/U3
*774 pe_u/pe9/U4
*775 pe_u/pe9/U5
*776 pe_u/pe9/U6
*777 pe_u/pe9/U7
*778 pe_u/pe9/U8
*779 pe_u/pe9/U9
*780 pe_u/pe9/U10
*781 pe_u/pe9/U11
*782 pe_u/pe9/U12
*783 pe_u/pe9/add_47/U1_7
*784 pe_u/pe9/add_47/U1_6
*785 pe_u/pe9/add_47/U1_5
*786 pe_u/pe9/add_47/U1_4
*787 pe_u/pe9/add_47/U1_3
*788 pe_u/pe9/add_47/U1_2
*789 pe_u/pe9/add_47/U1_1
*790 pe_u/pe9/add_47/U1
*791 pe_u/pe9/add_47/U2
*792 pe_u/pe9/sub_41/U2_7
*793 pe_u/pe9/sub_41/U2_6
*794 pe_u/pe9/sub_41/U2_5
*795 pe_u/pe9/sub_41/U2_4
*796 pe_u/pe9/sub_41/U2_3
*797 pe_u/pe9/sub_41/U2_2
*798 pe_u/pe9/sub_41/U2_1
*799 pe_u/pe9/sub_41/U1
*800 pe_u/pe9/sub_41/U2
*801 pe_u/pe9/sub_41/U3
*802 pe_u/pe9/sub_41/U4
*803 pe_u/pe9/sub_41/U5
*804 pe_u/pe9/sub_41/U6
*805 pe_u/pe9/sub_41/U7
*806 pe_u/pe9/sub_41/U8
*807 pe_u/pe9/sub_41/U9
*808 pe_u/pe9/sub_41/U10
*809 pe_u/pe10/Accumulate_reg[0]
*810 pe_u/pe10/Accumulate_reg[7]
*811 pe_u/pe10/Accumulate_reg[6]
*812 pe_u/pe10/Accumulate_reg[5]
*813 pe_u/pe10/Accumulate_reg[4]
*814 pe_u/pe10/Accumulate_reg[3]
*815 pe_u/pe10/Accumulate_reg[2]
*816 pe_u/pe10/Accumulate_reg[1]
*817 pe_u/pe10/U15
*818 pe_u/pe10/U16
*819 pe_u/pe10/U17
*820 pe_u/pe10/U18
*821 pe_u/pe10/U19
*822 pe_u/pe10/U20
*823 pe_u/pe10/U21
*824 pe_u/pe10/U22
*825 pe_u/pe10/Rpipe_reg[7]
*826 pe_u/pe10/Rpipe_reg[6]
*827 pe_u/pe10/Rpipe_reg[5]
*828 pe_u/pe10/Rpipe_reg[4]
*829 pe_u/pe10/Rpipe_reg[3]
*830 pe_u/pe10/Rpipe_reg[2]
*831 pe_u/pe10/Rpipe_reg[1]
*832 pe_u/pe10/Rpipe_reg[0]
*833 pe_u/pe10/U3
*834 pe_u/pe10/U4
*835 pe_u/pe10/U5
*836 pe_u/pe10/U6
*837 pe_u/pe10/U7
*838 pe_u/pe10/U8
*839 pe_u/pe10/U9
*840 pe_u/pe10/U10
*841 pe_u/pe10/U11
*842 pe_u/pe10/U12
*843 pe_u/pe10/add_47/U1_7
*844 pe_u/pe10/add_47/U1_6
*845 pe_u/pe10/add_47/U1_5
*846 pe_u/pe10/add_47/U1_4
*847 pe_u/pe10/add_47/U1_3
*848 pe_u/pe10/add_47/U1_2
*849 pe_u/pe10/add_47/U1_1
*850 pe_u/pe10/add_47/U1
*851 pe_u/pe10/add_47/U2
*852 pe_u/pe10/sub_41/U2_7
*853 pe_u/pe10/sub_41/U2_6
*854 pe_u/pe10/sub_41/U2_5
*855 pe_u/pe10/sub_41/U2_4
*856 pe_u/pe10/sub_41/U2_3
*857 pe_u/pe10/sub_41/U2_2
*858 pe_u/pe10/sub_41/U2_1
*859 pe_u/pe10/sub_41/U1
*860 pe_u/pe10/sub_41/U2
*861 pe_u/pe10/sub_41/U3
*862 pe_u/pe10/sub_41/U4
*863 pe_u/pe10/sub_41/U5
*864 pe_u/pe10/sub_41/U6
*865 pe_u/pe10/sub_41/U7
*866 pe_u/pe10/sub_41/U8
*867 pe_u/pe10/sub_41/U9
*868 pe_u/pe10/sub_41/U10
*869 pe_u/pe11/Accumulate_reg[0]
*870 pe_u/pe11/Accumulate_reg[7]
*871 pe_u/pe11/Accumulate_reg[6]
*872 pe_u/pe11/Accumulate_reg[5]
*873 pe_u/pe11/Accumulate_reg[4]
*874 pe_u/pe11/Accumulate_reg[3]
*875 pe_u/pe11/Accumulate_reg[2]
*876 pe_u/pe11/Accumulate_reg[1]
*877 pe_u/pe11/U15
*878 pe_u/pe11/U16
*879 pe_u/pe11/U17
*880 pe_u/pe11/U18
*881 pe_u/pe11/U19
*882 pe_u/pe11/U20
*883 pe_u/pe11/U21
*884 pe_u/pe11/U22
*885 pe_u/pe11/Rpipe_reg[7]
*886 pe_u/pe11/Rpipe_reg[6]
*887 pe_u/pe11/Rpipe_reg[5]
*888 pe_u/pe11/Rpipe_reg[4]
*889 pe_u/pe11/Rpipe_reg[3]
*890 pe_u/pe11/Rpipe_reg[2]
*891 pe_u/pe11/Rpipe_reg[1]
*892 pe_u/pe11/Rpipe_reg[0]
*893 pe_u/pe11/U3
*894 pe_u/pe11/U4
*895 pe_u/pe11/U5
*896 pe_u/pe11/U6
*897 pe_u/pe11/U7
*898 pe_u/pe11/U8
*899 pe_u/pe11/U9
*900 pe_u/pe11/U10
*901 pe_u/pe11/U11
*902 pe_u/pe11/U12
*903 pe_u/pe11/add_47/U1_7
*904 pe_u/pe11/add_47/U1_6
*905 pe_u/pe11/add_47/U1_5
*906 pe_u/pe11/add_47/U1_4
*907 pe_u/pe11/add_47/U1_3
*908 pe_u/pe11/add_47/U1_2
*909 pe_u/pe11/add_47/U1_1
*910 pe_u/pe11/add_47/U1
*911 pe_u/pe11/add_47/U2
*912 pe_u/pe11/sub_41/U2_7
*913 pe_u/pe11/sub_41/U2_6
*914 pe_u/pe11/sub_41/U2_5
*915 pe_u/pe11/sub_41/U2_4
*916 pe_u/pe11/sub_41/U2_3
*917 pe_u/pe11/sub_41/U2_2
*918 pe_u/pe11/sub_41/U2_1
*919 pe_u/pe11/sub_41/U1
*920 pe_u/pe11/sub_41/U2
*921 pe_u/pe11/sub_41/U3
*922 pe_u/pe11/sub_41/U4
*923 pe_u/pe11/sub_41/U5
*924 pe_u/pe11/sub_41/U6
*925 pe_u/pe11/sub_41/U7
*926 pe_u/pe11/sub_41/U8
*927 pe_u/pe11/sub_41/U9
*928 pe_u/pe11/sub_41/U10
*929 pe_u/pe12/Accumulate_reg[0]
*930 pe_u/pe12/Accumulate_reg[7]
*931 pe_u/pe12/Accumulate_reg[6]
*932 pe_u/pe12/Accumulate_reg[5]
*933 pe_u/pe12/Accumulate_reg[4]
*934 pe_u/pe12/Accumulate_reg[3]
*935 pe_u/pe12/Accumulate_reg[2]
*936 pe_u/pe12/Accumulate_reg[1]
*937 pe_u/pe12/U15
*938 pe_u/pe12/U16
*939 pe_u/pe12/U17
*940 pe_u/pe12/U18
*941 pe_u/pe12/U19
*942 pe_u/pe12/U20
*943 pe_u/pe12/U21
*944 pe_u/pe12/U22
*945 pe_u/pe12/Rpipe_reg[7]
*946 pe_u/pe12/Rpipe_reg[6]
*947 pe_u/pe12/Rpipe_reg[5]
*948 pe_u/pe12/Rpipe_reg[4]
*949 pe_u/pe12/Rpipe_reg[3]
*950 pe_u/pe12/Rpipe_reg[2]
*951 pe_u/pe12/Rpipe_reg[1]
*952 pe_u/pe12/Rpipe_reg[0]
*953 pe_u/pe12/U3
*954 pe_u/pe12/U4
*955 pe_u/pe12/U5
*956 pe_u/pe12/U6
*957 pe_u/pe12/U7
*958 pe_u/pe12/U8
*959 pe_u/pe12/U9
*960 pe_u/pe12/U10
*961 pe_u/pe12/U11
*962 pe_u/pe12/U12
*963 pe_u/pe12/add_47/U1_7
*964 pe_u/pe12/add_47/U1_6
*965 pe_u/pe12/add_47/U1_5
*966 pe_u/pe12/add_47/U1_4
*967 pe_u/pe12/add_47/U1_3
*968 pe_u/pe12/add_47/U1_2
*969 pe_u/pe12/add_47/U1_1
*970 pe_u/pe12/add_47/U1
*971 pe_u/pe12/add_47/U2
*972 pe_u/pe12/sub_41/U2_7
*973 pe_u/pe12/sub_41/U2_6
*974 pe_u/pe12/sub_41/U2_5
*975 pe_u/pe12/sub_41/U2_4
*976 pe_u/pe12/sub_41/U2_3
*977 pe_u/pe12/sub_41/U2_2
*978 pe_u/pe12/sub_41/U2_1
*979 pe_u/pe12/sub_41/U1
*980 pe_u/pe12/sub_41/U2
*981 pe_u/pe12/sub_41/U3
*982 pe_u/pe12/sub_41/U4
*983 pe_u/pe12/sub_41/U5
*984 pe_u/pe12/sub_41/U6
*985 pe_u/pe12/sub_41/U7
*986 pe_u/pe12/sub_41/U8
*987 pe_u/pe12/sub_41/U9
*988 pe_u/pe12/sub_41/U10
*989 pe_u/pe13/Accumulate_reg[0]
*990 pe_u/pe13/Accumulate_reg[7]
*991 pe_u/pe13/Accumulate_reg[6]
*992 pe_u/pe13/Accumulate_reg[5]
*993 pe_u/pe13/Accumulate_reg[4]
*994 pe_u/pe13/Accumulate_reg[3]
*995 pe_u/pe13/Accumulate_reg[2]
*996 pe_u/pe13/Accumulate_reg[1]
*997 pe_u/pe13/U15
*998 pe_u/pe13/U16
*999 pe_u/pe13/U17
*1000 pe_u/pe13/U18
*1001 pe_u/pe13/U19
*1002 pe_u/pe13/U20
*1003 pe_u/pe13/U21
*1004 pe_u/pe13/U22
*1005 pe_u/pe13/Rpipe_reg[7]
*1006 pe_u/pe13/Rpipe_reg[6]
*1007 pe_u/pe13/Rpipe_reg[5]
*1008 pe_u/pe13/Rpipe_reg[4]
*1009 pe_u/pe13/Rpipe_reg[3]
*1010 pe_u/pe13/Rpipe_reg[2]
*1011 pe_u/pe13/Rpipe_reg[1]
*1012 pe_u/pe13/Rpipe_reg[0]
*1013 pe_u/pe13/U3
*1014 pe_u/pe13/U4
*1015 pe_u/pe13/U5
*1016 pe_u/pe13/U6
*1017 pe_u/pe13/U7
*1018 pe_u/pe13/U8
*1019 pe_u/pe13/U9
*1020 pe_u/pe13/U10
*1021 pe_u/pe13/U11
*1022 pe_u/pe13/U12
*1023 pe_u/pe13/add_47/U1_7
*1024 pe_u/pe13/add_47/U1_6
*1025 pe_u/pe13/add_47/U1_5
*1026 pe_u/pe13/add_47/U1_4
*1027 pe_u/pe13/add_47/U1_3
*1028 pe_u/pe13/add_47/U1_2
*1029 pe_u/pe13/add_47/U1_1
*1030 pe_u/pe13/add_47/U1
*1031 pe_u/pe13/add_47/U2
*1032 pe_u/pe13/sub_41/U2_7
*1033 pe_u/pe13/sub_41/U2_6
*1034 pe_u/pe13/sub_41/U2_5
*1035 pe_u/pe13/sub_41/U2_4
*1036 pe_u/pe13/sub_41/U2_3
*1037 pe_u/pe13/sub_41/U2_2
*1038 pe_u/pe13/sub_41/U2_1
*1039 pe_u/pe13/sub_41/U1
*1040 pe_u/pe13/sub_41/U2
*1041 pe_u/pe13/sub_41/U3
*1042 pe_u/pe13/sub_41/U4
*1043 pe_u/pe13/sub_41/U5
*1044 pe_u/pe13/sub_41/U6
*1045 pe_u/pe13/sub_41/U7
*1046 pe_u/pe13/sub_41/U8
*1047 pe_u/pe13/sub_41/U9
*1048 pe_u/pe13/sub_41/U10
*1049 pe_u/pe14/Accumulate_reg[0]
*1050 pe_u/pe14/Accumulate_reg[7]
*1051 pe_u/pe14/Accumulate_reg[6]
*1052 pe_u/pe14/Accumulate_reg[5]
*1053 pe_u/pe14/Accumulate_reg[4]
*1054 pe_u/pe14/Accumulate_reg[3]
*1055 pe_u/pe14/Accumulate_reg[2]
*1056 pe_u/pe14/Accumulate_reg[1]
*1057 pe_u/pe14/U15
*1058 pe_u/pe14/U16
*1059 pe_u/pe14/U17
*1060 pe_u/pe14/U18
*1061 pe_u/pe14/U19
*1062 pe_u/pe14/U20
*1063 pe_u/pe14/U21
*1064 pe_u/pe14/U22
*1065 pe_u/pe14/Rpipe_reg[7]
*1066 pe_u/pe14/Rpipe_reg[6]
*1067 pe_u/pe14/Rpipe_reg[5]
*1068 pe_u/pe14/Rpipe_reg[4]
*1069 pe_u/pe14/Rpipe_reg[3]
*1070 pe_u/pe14/Rpipe_reg[2]
*1071 pe_u/pe14/Rpipe_reg[1]
*1072 pe_u/pe14/Rpipe_reg[0]
*1073 pe_u/pe14/U3
*1074 pe_u/pe14/U4
*1075 pe_u/pe14/U5
*1076 pe_u/pe14/U6
*1077 pe_u/pe14/U7
*1078 pe_u/pe14/U8
*1079 pe_u/pe14/U9
*1080 pe_u/pe14/U10
*1081 pe_u/pe14/U11
*1082 pe_u/pe14/U12
*1083 pe_u/pe14/add_47/U1_7
*1084 pe_u/pe14/add_47/U1_6
*1085 pe_u/pe14/add_47/U1_5
*1086 pe_u/pe14/add_47/U1_4
*1087 pe_u/pe14/add_47/U1_3
*1088 pe_u/pe14/add_47/U1_2
*1089 pe_u/pe14/add_47/U1_1
*1090 pe_u/pe14/add_47/U1
*1091 pe_u/pe14/add_47/U2
*1092 pe_u/pe14/sub_41/U2_7
*1093 pe_u/pe14/sub_41/U2_6
*1094 pe_u/pe14/sub_41/U2_5
*1095 pe_u/pe14/sub_41/U2_4
*1096 pe_u/pe14/sub_41/U2_3
*1097 pe_u/pe14/sub_41/U2_2
*1098 pe_u/pe14/sub_41/U2_1
*1099 pe_u/pe14/sub_41/U1
*1100 pe_u/pe14/sub_41/U2
*1101 pe_u/pe14/sub_41/U3
*1102 pe_u/pe14/sub_41/U4
*1103 pe_u/pe14/sub_41/U5
*1104 pe_u/pe14/sub_41/U6
*1105 pe_u/pe14/sub_41/U7
*1106 pe_u/pe14/sub_41/U8
*1107 pe_u/pe14/sub_41/U9
*1108 pe_u/pe14/sub_41/U10
*1109 pe_u/pe15/Accumulate_reg[0]
*1110 pe_u/pe15/Accumulate_reg[7]
*1111 pe_u/pe15/Accumulate_reg[6]
*1112 pe_u/pe15/Accumulate_reg[5]
*1113 pe_u/pe15/Accumulate_reg[4]
*1114 pe_u/pe15/Accumulate_reg[3]
*1115 pe_u/pe15/Accumulate_reg[2]
*1116 pe_u/pe15/Accumulate_reg[1]
*1117 pe_u/pe15/U15
*1118 pe_u/pe15/U16
*1119 pe_u/pe15/U17
*1120 pe_u/pe15/U18
*1121 pe_u/pe15/U19
*1122 pe_u/pe15/U20
*1123 pe_u/pe15/U21
*1124 pe_u/pe15/U22
*1125 pe_u/pe15/U3
*1126 pe_u/pe15/U4
*1127 pe_u/pe15/U5
*1128 pe_u/pe15/U6
*1129 pe_u/pe15/U7
*1130 pe_u/pe15/U8
*1131 pe_u/pe15/U9
*1132 pe_u/pe15/U10
*1133 pe_u/pe15/U11
*1134 pe_u/pe15/U12
*1135 pe_u/pe15/add_72/U1_7
*1136 pe_u/pe15/add_72/U1_6
*1137 pe_u/pe15/add_72/U1_5
*1138 pe_u/pe15/add_72/U1_4
*1139 pe_u/pe15/add_72/U1_3
*1140 pe_u/pe15/add_72/U1_2
*1141 pe_u/pe15/add_72/U1_1
*1142 pe_u/pe15/add_72/U1
*1143 pe_u/pe15/add_72/U2
*1144 pe_u/pe15/sub_66/U2_7
*1145 pe_u/pe15/sub_66/U2_6
*1146 pe_u/pe15/sub_66/U2_5
*1147 pe_u/pe15/sub_66/U2_4
*1148 pe_u/pe15/sub_66/U2_3
*1149 pe_u/pe15/sub_66/U2_2
*1150 pe_u/pe15/sub_66/U2_1
*1151 pe_u/pe15/sub_66/U1
*1152 pe_u/pe15/sub_66/U2
*1153 pe_u/pe15/sub_66/U3
*1154 pe_u/pe15/sub_66/U4
*1155 pe_u/pe15/sub_66/U5
*1156 pe_u/pe15/sub_66/U6
*1157 pe_u/pe15/sub_66/U7
*1158 pe_u/pe15/sub_66/U8
*1159 pe_u/pe15/sub_66/U9
*1160 pe_u/pe15/sub_66/U10
*1161 comp_u/U3
*1162 comp_u/U5
*1163 comp_u/U6
*1164 comp_u/U7
*1165 comp_u/U8
*1166 comp_u/U9
*1167 comp_u/U10
*1168 comp_u/U11
*1169 comp_u/U14
*1170 comp_u/U16
*1171 comp_u/U19
*1172 comp_u/U21
*1173 comp_u/U23
*1174 comp_u/U26
*1175 comp_u/U28
*1176 comp_u/U31
*1177 comp_u/U33
*1178 comp_u/U35
*1179 comp_u/U38
*1180 comp_u/U40
*1181 comp_u/U43
*1182 comp_u/U45
*1183 comp_u/U47
*1184 comp_u/U50
*1185 comp_u/U52
*1186 comp_u/U55
*1187 comp_u/U57
*1188 comp_u/U59
*1189 comp_u/U62
*1190 comp_u/U64
*1191 comp_u/U67
*1192 comp_u/U69
*1193 comp_u/U71
*1194 comp_u/U74
*1195 comp_u/U76
*1196 comp_u/U79
*1197 comp_u/U81
*1198 comp_u/U83
*1199 comp_u/U86
*1200 comp_u/U88
*1201 comp_u/U91
*1202 comp_u/U93
*1203 comp_u/U95
*1204 comp_u/U98
*1205 comp_u/U100
*1206 comp_u/U103
*1207 comp_u/U104
*1208 comp_u/U105
*1209 comp_u/U106
*1210 comp_u/U108
*1211 comp_u/ctmTdsLR_1_2537
*1212 comp_u/U110
*1213 comp_u/U114
*1214 comp_u/U115
*1215 comp_u/U117
*1216 comp_u/U118
*1217 comp_u/U119
*1218 comp_u/U121
*1219 comp_u/U122
*1220 comp_u/U124
*1221 comp_u/U125
*1222 comp_u/U126
*1223 comp_u/U128
*1224 comp_u/motionY_reg[0]
*1225 comp_u/motionY_reg[1]
*1226 comp_u/motionY_reg[2]
*1227 comp_u/motionY_reg[3]
*1228 comp_u/motionX_reg[3]
*1229 comp_u/motionX_reg[2]
*1230 comp_u/motionX_reg[1]
*1231 comp_u/motionX_reg[0]
*1232 comp_u/BestDist_reg[0]
*1233 comp_u/BestDist_reg[1]
*1234 comp_u/BestDist_reg[2]
*1235 comp_u/BestDist_reg[3]
*1236 comp_u/BestDist_reg[4]
*1237 comp_u/BestDist_reg[5]
*1238 comp_u/BestDist_reg[6]
*1239 comp_u/BestDist_reg[7]
*1240 comp_u/U4
*1241 comp_u/U12
*1242 comp_u/U13
*1243 comp_u/U15
*1244 comp_u/U17
*1245 comp_u/U18
*1246 comp_u/U20
*1247 comp_u/U22
*1248 ctl_u/ctmTdsLR_2_2544_roptpi_2547
*1249 comp_u/U25
*1250 comp_u/U27
*1251 comp_u/U29
*1252 comp_u/U30
*1253 comp_u/U32
*1254 comp_u/U34
*1255 comp_u/U36
*1256 comp_u/U37
*1257 comp_u/U39
*1258 comp_u/U41
*1259 comp_u/U42
*1260 comp_u/U44
*1261 comp_u/U46
*1262 comp_u/U48
*1263 comp_u/U49
*1264 comp_u/U51
*1265 comp_u/U53
*1266 comp_u/U54
*1267 comp_u/U56
*1268 comp_u/U58
*1269 comp_u/U60
*1270 comp_u/U61
*1271 comp_u/U63
*1272 comp_u/U65
*1273 comp_u/U66
*1274 comp_u/U68
*1275 comp_u/U70
*1276 comp_u/U72
*1277 comp_u/U73
*1278 comp_u/U75
*1279 comp_u/U77
*1280 comp_u/U78
*1281 comp_u/U80
*1282 comp_u/U82
*1283 comp_u/U84
*1284 comp_u/U85
*1285 comp_u/U87
*1286 comp_u/U89
*1287 comp_u/U90
*1288 comp_u/U92
*1289 comp_u/U94
*1290 comp_u/U96
*1291 comp_u/U97
*1292 comp_u/U99
*1293 comp_u/U101
*1294 comp_u/U102
*1295 comp_u/U107
*1296 comp_u/U111
*1297 comp_u/U112
*1298 comp_u/U113
*1299 comp_u/U120
*1300 comp_u/U123
*1301 comp_u/U127
*1302 comp_u/U129
*1303 comp_u/U130
*1304 comp_u/U131
*1305 comp_u/U132
*1306 comp_u/U133
*1307 comp_u/U134
*1308 comp_u/U135
*1309 comp_u/U136
*1310 comp_u/U137
*1311 comp_u/U138
*1312 comp_u/U139