*SPEF "1481-1998"
*DESIGN "count_downtimer"
*DATE "Sun Dec 12 16:53:03 2021"
*VENDOR "Synopsys, Inc."
*PROGRAM "icc2 /packages/synopsys/icc2/S-2021.06-SP1/linux64/nwtn/bin/icc2_exec"
*VERSION "S-2021.06-SP1 Jul 13, 2021"
*DESIGN_FLOW "ICC2 SPEF DR"
*DIVIDER /
*DELIMITER :
*BUS_DELIMITER [ ]
*T_UNIT 1 NS
*C_UNIT 1 FF
*R_UNIT 1 OHM
*L_UNIT 1 HENRY

// XY_UNIT 1 UM
// PARASITIC_TECH tlup_min at 125.000 degree

*NAME_MAP
*1 clk
*2 in[7]
*3 in[6]
*4 in[5]
*5 in[4]
*6 in[3]
*7 in[2]
*8 in[1]
*9 in[0]
*10 latch
*11 dec
*12 zero
*13 value[7]
*14 value[6]
*15 value[5]
*16 value[4]
*17 value[3]
*18 value[2]
*19 value[1]
*20 value[0]
*21 dvd2
*22 VDD
*23 VSS
*24 U27
*25 U30
*26 U31
*27 value_reg[4]
*28 value_reg[6]
*29 value_reg[5]
*30 value_reg[0]
*31 value_reg[1]
*32 value_reg[2]
*33 value_reg[3]
*34 value_reg[7]
*35 U36
*36 U37
*37 U38
*38 U39
*39 U40
*40 U41
*41 U43
*42 U45
*43 U46
*44 U47
*45 U48
*46 U49
*47 U50
*48 U51
*49 U52
*50 U53
*51 U54
*52 U55
*53 U56
*54 U57
*55 U59
*56 U60
*57 U61
*58 U62
*59 U63
*60 U64
*61 U65
*62 U66
*63 U67
*64 U68
*65 U69
*66 U70
*67 U71
*68 U72
*69 U73
*70 U74
*71 ctmTdsLR_1_2405
*72 ctmTdsLR_1_2406
*73 ctmTdsLR_1_2407
*74 N8
*75 N9
*76 N10
*77 N11
*78 N12
*79 N13
*80 N14
*81 n1
*82 n4
*83 n5
*84 n6
*85 n8
*86 n9
*87 n11
*88 n12
*89 n14
*90 n15
*91 n16
*92 n17
*93 n18
*94 n19
*95 n20
*96 n21
*97 n22
*98 n23
*99 n24
*100 n26
*101 n27
*102 n28
*103 n29
*104 n30
*105 n31
*106 n32
*107 n33
*108 n34
*109 n35
*110 n37
*111 n38
*112 n39
*113 n40
*114 n41
*115 n42
*116 n43
*117 n44
*118 n45
*119 n46

*PORTS

*1 I *C 4.297 0.074
*2 I *C 6.443 0.074
*3 I *C 5.037 0.074
*4 I *C 3.631 0.074
*5 I *C 2.225 0.074
*6 I *C 0.819 0.074
*7 I *C 8.520 7.000
*8 I *C 8.520 5.440
*9 I *C 8.520 3.880
*10 I *C 8.520 2.320
*11 I *C 8.520 0.760
*12 O *C 7.701 7.926
*13 O *C 5.999 7.926
*14 O *C 4.297 7.926
*15 O *C 2.669 7.926
*16 O *C 0.967 7.926
*17 O *C 0.074 7.000
*18 O *C 0.074 5.440
*19 O *C 0.074 3.880
*20 O *C 0.074 2.320
*21 I *C 0.074 0.760
*22 I *C 4.297 4.000
*23 I *C 4.297 4.000

*D_NET *13 0.4923364 //LENGTH 5.468 LUMPCC 0.2855965 DR

*CONN
*I *34:Q O *L 0 *C 6.718 3.520
*I *70:A1 I *L 0.503657 *C 6.665 4.000
*P *13 O *L 0 *C 5.999 7.900
*N *13:3 *C 6.018 7.900
*N *13:4 *C 6.609 7.900
*N *13:5 *C 6.628 7.881
*N *13:6 *C 6.665 4.000
*N *13:7 *C 6.628 4.060
*N *13:8 *C 6.628 4.060
*N *13:9 *C 6.628 3.539
*N *13:10 *C 6.647 3.520

*CAP
0 *34:Q 0.01353444
1 *70:A1 0.001
2 *13 0.001
3 *13:3 0.0241175
4 *13:4 0.02408337
5 *13:5 0.05425099
6 *13:6 0.005919292
7 *13:7 0.006071096
8 *13:8 0.06064659
9 *13:9 0.003138444
10 *13:10 0.01297819
12 *13:8 *1:12 0.04891285
14 *13:8 *1:14 0.03045729
16 *13:5 *1:12 0.03045729
18 *13:5 *1:10 0.03318865
20 *13:9 *1:14 0.0157242
22 *13:6 *10:45 0.0002212382
24 *13:7 *10:44 0.0002212382
26 *13:8 *10:40 0.007527222
28 *13:8 *10:47 0.01559207
30 *13:8 *10:43 0.01162058
32 *13:8 *10:41 0.008202414
34 *13:8 *10:42 4.615674e-05
36 *13:5 *10:40 0.008202414
38 *13:5 *10:38 0.007527222
40 *13:5 *10:42 0.01162058
42 *13:9 *10:50 0.01559207
44 *13:9 *10:43 4.615674e-05
46 *13:8 *12:6 0.02021841
48 *13:5 *12:5 0.02021841

*RES
0 *34:Q *13:10 0.2088236
1 *13:6 *70:A1 2.777778
2 *13:7 *13:6 0.1764706
3 *13:8 *13:7 1.388889
4 *13:8 *13:5 11.23824
5 *13:4 *13:3 1.738235
6 *13:5 *13:4 1.388889
7 *13:3 *13 2.777778
8 *13:10 *13:9 1.388889
9 *13:9 *13:8 1.532353

*END

*D_NET *1 2.164713 //LENGTH 17.958 LUMPCC 1.323935 DR

*CONN
*P *1 I *L 0 *C 4.297 0.127
*I *33:CK I *L 0.2706877 *C 3.372 1.600
*I *27:CK I *L 0.2706877 *C 3.298 3.400
*I *30:CK I *L 0.2706877 *C 2.587 4.600
*I *29:CK I *L 0.2706877 *C 4.881 1.600
*I *34:CK I *L 0.2706877 *C 6.804 3.400
*I *31:CK I *L 0.2706877 *C 6.804 5.200
*I *32:CK I *L 0.2706877 *C 6.804 6.400
*I *28:CK I *L 0.2706877 *C 6.434 1.600
*N *1:9 *C 6.776 6.400
*N *1:10 *C 6.776 6.381
*N *1:11 *C 6.776 5.200
*N *1:12 *C 6.776 5.200
*N *1:13 *C 6.776 3.400
*N *1:14 *C 6.776 3.400
*N *1:15 *C 6.776 1.619
*N *1:16 *C 6.776 1.600
*N *1:17 *C 6.746 1.600
*N *1:18 *C 6.434 1.600
*N *1:19 *C 6.406 1.600
*N *1:20 *C 6.406 1.579
*N *1:21 *C 6.424 1.596
*N *1:22 *C 6.421 1.596
*N *1:23 *C 4.852 0.279
*N *1:24 *C 4.852 1.600
*N *1:25 *C 4.852 1.596
*N *1:26 *C 4.852 1.596
*N *1:27 *C 2.558 4.600
*N *1:28 *C 2.558 4.600
*N *1:29 *C 2.576 3.668
*N *1:30 *C 2.579 3.668
*N *1:31 *C 3.351 3.668
*N *1:32 *C 3.354 3.668
*N *1:33 *C 3.298 3.400
*N *1:34 *C 3.372 3.400
*N *1:35 *C 3.372 1.596
*N *1:36 *C 3.376 1.596
*N *1:37 *C 4.500 1.596
*N *1:38 *C 4.500 1.596
*N *1:39 *C 4.482 0.179
*N *1:40 *C 4.463 0.160
*N *1:41 *C 4.316 0.160
*N *1:42 *C 4.297 0.160

*CAP
0 *1 0.005124073
1 *33:CK 0.001
2 *27:CK 0.001
3 *30:CK 0.009054891
4 *29:CK 0.02017573
5 *34:CK 0.01180689
6 *31:CK 0.01043546
7 *32:CK 0.01069065
8 *28:CK 0.001
9 *1:9 0.01013439
10 *1:10 0.009883293
11 *1:11 0.00987921
12 *1:12 0.02529073
13 *1:13 0.01125063
14 *1:14 0.04326028
15 *1:15 0.02801311
16 *1:16 0.003644102
17 *1:17 0.004187552
18 *1:18 0.01671597
19 *1:19 0.01617252
20 *1:20 0.03010211
21 *1:21 0.03451117
22 *1:22 0.04434453
23 *1:23 0.04350206
24 *1:24 0.0190305
25 *1:25 0.0463073
26 *1:26 0.05304638
27 *1:27 0.008498637
28 *1:28 0.02328887
29 *1:29 0.02530398
30 *1:30 0.02765116
31 *1:31 0.02765116
32 *1:32 0.008549614
33 *1:33 0.005265709
34 *1:34 0.04635819
35 *1:35 0.04152694
36 *1:36 0.02627818
37 *1:37 0.03490852
38 *1:38 0.01775214
39 *1:39 0.01324541
40 *1:40 0.005150088
41 *1:41 0.005184216
42 *1:42 0.004601946
44 *1:12 *13:5 0.03045729
46 *1:12 *13:8 0.04891285
48 *1:10 *13:5 0.03318865
50 *1:14 *13:8 0.03045729
52 *1:14 *13:9 0.0157242
54 *1:20 *2:6 0.005594071
56 *1:15 *2:6 0.0792146
58 *1:21 *2:5 0.005594071
60 *1:14 *2:5 0.0792146
62 *1:38 *4:3 0.07760893
64 *1:40 *4:5 0.00677681
66 *1:39 *4:4 0.07760893
68 *1:41 *4:6 0.00677681
70 *1:25 *4:4 0.0007028637
72 *1:23 *4:3 0.0007028637
74 *1:20 *11:17 0.01917387
76 *1:36 *11:9 0.01396177
78 *1:37 *11:10 0.01396177
80 *1:37 *11:9 0.004080396
82 *1:21 *11:16 0.01917387
84 *1:22 *11:10 0.01044232
86 *1:26 *11:10 0.004080396
88 *1:26 *11:9 0.01044232
90 *1:17 *11:15 1.280341e-05
92 *1:18 *11:14 1.280341e-05
94 *31:CK *12:12 0.0009169806
96 *1:15 *12:10 0.003397283
98 *1:11 *12:13 0.0009169806
100 *1:12 *12:11 0.04298019
102 *1:12 *12:5 0.003415674
104 *1:12 *12:7 0.0009559027
106 *1:12 *12:6 0.02369483
108 *1:10 *12:5 0.02369483
110 *1:14 *12:11 0.004353186
112 *1:14 *12:10 0.04298019
114 *1:14 *12:6 0.003415674
116 *1:29 *19:16 0.06616204
118 *1:28 *19:19 0.06616204
120 *30:CK *20:24 0.0001051079
122 *30:CK *20:15 0.002496064
124 *1:29 *20:25 0.06325854
126 *1:27 *20:23 0.0001051079
128 *1:27 *20:27 0.002496064
130 *1:28 *20:26 0.06325854
132 *34:CK *82:7 0.0002319937
134 *1:15 *82:9 0.08148377
136 *1:13 *82:6 0.0002319937
138 *1:14 *82:8 0.08148377
140 *1:35 *89:2 0.01591202
142 *1:34 *89:3 0.01591202
144 *1:32 *90:5 0.008017349
146 *1:35 *90:4 0.01563904
148 *1:34 *90:4 0.008017349
150 *1:34 *90:5 0.01563904
152 *1:32 *92:6 0.006847189
154 *1:35 *92:5 0.01876956
156 *1:34 *92:5 0.006847189
158 *1:34 *92:6 0.01876956
160 *1:25 *95:2 0.01074542
162 *1:23 *95:3 0.01074542

*RES
0 *1 *1:42 0.1617647
1 *1:32 *1:31 0.3472222
2 *1:31 *1:30 1.285
3 *1:29 *1:28 2.741177
4 *1:30 *1:29 0.3472222
5 *1:27 *30:CK 0.1617647
6 *1:28 *1:27 1.388889
7 *1:19 *1:18 0.08294119
8 *1:20 *1:19 1.388889
9 *1:35 *33:CK 1.388889
10 *1:35 *1:34 5.305883
11 *1:36 *1:35 0.3472222
12 *1:33 *27:CK 1.388889
13 *1:38 *1:37 0.3472222
14 *1:37 *1:36 1.874167
15 *1:37 *1:26 0.5866667
16 *1:40 *1:39 1.388889
17 *1:39 *1:38 4.167647
18 *1:42 *1:41 2.777778
19 *1:41 *1:40 0.432353
20 *1:16 *1:15 1.388889
21 *1:15 *1:14 5.238235
22 *1:21 *1:20 0.05
23 *1:22 *1:21 0.3472222
24 *1:25 *1:24 1.388889
25 *1:25 *1:23 3.87353
26 *1:26 *1:25 0.3472222
27 *1:26 *1:22 2.615834
28 *1:24 *29:CK 0.1617647
29 *1:11 *31:CK 0.1617647
30 *1:12 *1:11 1.388889
31 *1:12 *1:10 3.47353
32 *1:9 *32:CK 0.1617647
33 *1:10 *1:9 1.388889
34 *1:13 *34:CK 0.1617647
35 *1:14 *1:13 1.388889
36 *1:14 *1:12 5.294118
37 *1:34 *1:33 0.2176471
38 *1:34 *1:32 0.7882354
39 *1:17 *1:16 0.0882353
40 *1:18 *1:17 0.9170589
41 *1:18 *28:CK 0.01

*END

*D_NET *2 0.5420434 //LENGTH 3.576 LUMPCC 0.3859643 DR

*CONN
*P *2 I *L 0 *C 6.443 0.100
*I *55:B1 I *L 0.3149807 *C 6.813 2.860
*N *2:2 *C 6.794 2.860
*N *2:3 *C 6.702 2.860
*N *2:4 *C 6.702 2.920
*N *2:5 *C 6.702 2.901
*N *2:6 *C 6.702 0.119
*N *2:7 *C 6.683 0.100
*N *2:8 *C 6.462 0.100

*CAP
0 *2 0.001
1 *55:B1 0.001
2 *2:2 0.01109969
3 *2:3 0.01697223
4 *2:4 0.007725776
5 *2:5 0.04731426
6 *2:6 0.04731426
7 *2:7 0.01180934
8 *2:8 0.01184346
10 *2:5 *1:14 0.0792146
12 *2:5 *1:21 0.005594071
14 *2:6 *1:15 0.0792146
16 *2:6 *1:20 0.005594071
18 *2:2 *10:48 0.008415274
20 *2:5 *10:50 0.008293196
22 *2:5 *10:47 0.003392794
24 *2:5 *10:53 0.001179494
26 *2:5 *10:58 0.00560488
28 *2:6 *10:50 0.003392794
30 *2:6 *10:54 0.001179494
32 *2:6 *10:53 0.008293196
34 *2:6 *10:57 0.00560488
36 *2:3 *10:49 0.008415274
38 *2:5 *11:16 0.08128787
40 *2:6 *11:17 0.08128787

*RES
0 *2 *2:8 2.777778
1 *2:2 *55:B1 2.777778
2 *2:4 *2:3 0.1764706
3 *2:5 *2:4 1.388889
4 *2:7 *2:6 1.388889
5 *2:6 *2:5 8.182353
6 *2:8 *2:7 0.65
7 *2:3 *2:2 0.2705883

*END

*D_NET *3 0.3260826 //LENGTH 3.249 LUMPCC 0.06962719 DR

*CONN
*P *3 I *L 0 *C 5.037 0.131
*I *51:A1 I *L 0.2963749 *C 5.430 2.200
*N *3:2 *C 5.499 2.200
*N *3:3 *C 5.518 2.181
*N *3:4 *C 5.518 1.120
*N *3:5 *C 5.499 1.120
*N *3:6 *C 5.056 1.120
*N *3:7 *C 5.037 1.101

*CAP
0 *3 0.04873572
1 *51:A1 0.01919604
2 *3:2 0.01863979
3 *3:3 0.04165686
4 *3:4 0.04420685
5 *3:5 0.0178862
6 *3:6 0.01792033
7 *3:7 0.0482136
9 *3:3 *14:11 0.003014839
11 *3:3 *14:14 0.01877282
13 *3:5 *28:Q 0.002997245
15 *3:4 *14:15 0.01877282
17 *3:4 *14:14 0.003014839
19 *3:6 *14:16 0.002997245
21 *3:3 *107:5 0.009725068
23 *3:5 *107:2 0.0003036195
25 *3:4 *107:4 0.009725068
27 *3:6 *107:3 0.0003036195

*RES
0 *3 *3:7 2.852942
1 *3:2 *51:A1 0.2029411
2 *3:3 *3:2 1.388889
3 *3:5 *3:4 1.388889
4 *3:4 *3:3 3.120589
5 *3:7 *3:6 2.777778
6 *3:6 *3:5 1.302941

*END

*D_NET *4 0.3587192 //LENGTH 3.258 LUMPCC 0.2185115 DR

*CONN
*P *4 I *L 0 *C 3.631 0.131
*I *48:A1 I *L 0.2963749 *C 4.408 2.200
*N *4:2 *C 4.408 2.260
*N *4:3 *C 4.408 2.241
*N *4:4 *C 4.408 0.299
*N *4:5 *C 4.389 0.280
*N *4:6 *C 3.650 0.280
*N *4:7 *C 3.631 0.261

*CAP
0 *4 0.008205281
1 *48:A1 0.004569154
2 *4:2 0.008737081
3 *4:3 0.03015476
4 *4:4 0.03015476
5 *4:5 0.02533473
6 *4:6 0.02536886
7 *4:7 0.007683154
9 *4:3 *1:23 0.0007028637
11 *4:3 *1:38 0.07760893
13 *4:5 *1:40 0.00677681
15 *4:4 *1:25 0.0007028637
17 *4:4 *1:39 0.07760893
19 *4:6 *1:41 0.00677681
21 *4:3 *15:14 0.004093732
23 *4:3 *15:19 0.008386509
25 *4:4 *15:20 0.008386509
27 *4:4 *15:19 0.004093732
29 *4:3 *83:14 0.01168688
31 *4:4 *83:15 0.01168688

*RES
0 *4 *4:7 0.382353
1 *4:2 *48:A1 0.1764706
2 *4:3 *4:2 1.388889
3 *4:5 *4:4 1.388889
4 *4:4 *4:3 5.711765
5 *4:7 *4:6 2.777778
6 *4:6 *4:5 2.173529

*END

*D_NET *5 0.2957228 //LENGTH 3.294 LUMPCC 0.1415117 DR

*CONN
*P *5 I *L 0 *C 2.225 0.131
*I *45:A1 I *L 0.2963749 *C 1.892 2.800
*N *5:2 *C 1.892 2.740
*N *5:3 *C 1.892 2.721
*N *5:4 *C 1.892 0.299
*N *5:5 *C 1.911 0.280
*N *5:6 *C 2.206 0.280
*N *5:7 *C 2.225 0.261

*CAP
0 *5 0.008255934
1 *45:A1 0.0008909708
2 *5:2 0.003943703
3 *5:3 0.05763668
4 *5:4 0.05763668
5 *5:5 0.009039604
6 *5:6 0.009073732
7 *5:7 0.007733808
9 *5:5 *6:6 0.009510783
11 *5:6 *6:5 0.009510783
13 *5:3 *11:6 0.03632944
15 *5:4 *11:5 0.03632944
17 *5:3 *104:5 0.01470957
19 *5:4 *104:4 0.01470957
21 *45:A1 *118:28 0.00301193
23 *5:2 *118:27 0.00301193
25 *5:3 *118:24 0.00719412
27 *5:4 *118:25 0.00719412

*RES
0 *5 *5:7 0.382353
1 *5:2 *45:A1 0.1764706
2 *5:3 *5:2 1.388889
3 *5:5 *5:4 1.388889
4 *5:4 *5:3 7.12353
5 *5:7 *5:6 2.777778
6 *5:6 *5:5 0.8676471

*END

*D_NET *6 0.4313297 //LENGTH 4.076 LUMPCC 0.2338271 DR

*CONN
*P *6 I *L 0 *C 0.819 0.100
*I *42:A1 I *L 0.2963749 *C 2.558 2.200
*N *6:2 *C 2.558 2.140
*N *6:3 *C 2.558 2.121
*N *6:4 *C 2.558 0.119
*N *6:5 *C 2.539 0.100
*N *6:6 *C 0.838 0.100

*CAP
0 *6 0.001
1 *42:A1 0.0044483
2 *6:2 0.008140633
3 *6:3 0.03428674
4 *6:4 0.03428674
5 *6:5 0.05765302
6 *6:6 0.05768715
8 *6:5 *5:6 0.009510783
10 *6:6 *5:5 0.009510783
12 *6:3 *10:27 0.07459284
14 *6:4 *10:28 0.07459284
16 *6:3 *104:5 0.03280994
18 *6:4 *104:4 0.03280994

*RES
0 *6 *6:6 2.777778
1 *6:2 *42:A1 0.1764706
2 *6:3 *6:2 1.388889
3 *6:5 *6:4 1.388889
4 *6:4 *6:3 5.888236
5 *6:6 *6:5 5.002942

*END

*D_NET *7 0.2742562 //LENGTH 3.795 LUMPCC 0 DR

*CONN
*P *7 I *L 0 *C 8.463 7.000
*I *40:A1 I *L 0.2963749 *C 5.370 6.400
*N *7:2 *C 5.370 6.520
*N *7:3 *C 5.407 6.520
*N *7:4 *C 5.407 7.000

*CAP
0 *7 0.1048738
1 *40:A1 0.00575752
2 *7:2 0.01050929
3 *7:3 0.02649678
4 *7:4 0.1266188

*RES
0 *7 *7:4 8.988236
1 *7:2 *40:A1 0.3529412
2 *7:3 *7:2 0.1088235
3 *7:4 *7:3 1.411765

*END

*D_NET *8 0.3952022 //LENGTH 4.322 LUMPCC 0.1396125 DR

*CONN
*P *8 I *L 0 *C 8.463 5.440
*I *41:A2 I *L 0.3261601 *C 5.777 5.680
*N *8:2 *C 5.796 5.680
*N *8:3 *C 5.869 5.680
*N *8:4 *C 5.888 5.661
*N *8:5 *C 5.888 5.440
*N *8:6 *C 5.907 5.440

*CAP
0 *8 0.100289
1 *41:A2 0.001
2 *8:2 0.01192246
3 *8:3 0.01188834
4 *8:4 0.01408598
5 *8:5 0.01667127
6 *8:6 0.0997327
8 *8 *10:39 0.002767136
10 *8:2 *41:A1 0.003666051
12 *8:3 *10:39 0.003666051
14 *8:4 *10:40 0.01473799
16 *8:4 *10:42 0.01144317
18 *8:6 *41:A1 0.002767136
20 *8:5 *10:43 0.01144317
22 *8:5 *10:41 0.01473799
24 *8 *102:3 0.002704993
26 *8:2 *102:4 0.0001786691
28 *8:3 *102:3 0.0001786691
30 *8:4 *102:6 0.03430823
32 *8:6 *102:4 0.002704993
34 *8:5 *102:5 0.03430823

*RES
0 *8 *8:6 7.517647
1 *8:2 *41:A2 2.777778
2 *8:3 *8:2 0.2147059
3 *8:4 *8:3 1.388889
4 *8:6 *8:5 1.388889
5 *8:5 *8:4 0.65

*END

*D_NET *9 1.171712 //LENGTH 8.146 LUMPCC 0.6361495 DR

*CONN
*P *9 I *L 0 *C 8.463 3.880
*I *54:A1 I *L 0.2963749 *C 2.026 4.000
*N *9:2 *C 2.095 4.000
*N *9:3 *C 2.114 3.981
*N *9:4 *C 2.114 3.820
*N *9:5 *C 2.133 3.820
*N *9:6 *C 5.111 3.820
*N *9:7 *C 5.111 3.880

*CAP
0 *9 0.1329837
1 *54:A1 0.005380183
2 *9:2 0.004823928
3 *9:3 0.01525547
4 *9:4 0.01781225
5 *9:5 0.1095852
6 *9:6 0.1134398
7 *9:7 0.136282
9 *54:A1 *19 0.001139263
11 *9:2 *19:15 0.001139263
13 *9:5 *19 0.04848684
15 *9:6 *19:15 0.04848684
17 *9 *80:5 0.02279259
19 *9:7 *80:6 0.02279259
21 *9 *86:6 0.001874791
23 *9:3 *86:19 0.03893475
25 *9:5 *86:16 0.0008334477
27 *9:4 *86:20 0.03893475
29 *9:6 *86:15 0.0008334477
31 *9:7 *86:14 0.001874791
33 *9 *87:30 0.02574303
35 *9 *87:12 0.02424955
37 *9 *87:29 0.02991758
39 *9:5 *87:27 0.002311758
41 *9:5 *87:14 0.0036069
43 *9:5 *87:28 0.01786109
45 *9:5 *87:13 0.01095043
47 *9:6 *87:27 0.0036069
49 *9:6 *87:14 0.01095043
51 *9:6 *87:28 0.002311758
53 *9:6 *87:29 0.01786109
55 *9:7 *87:30 0.02424955
57 *9:7 *87:28 0.02991758
59 *9:7 *87:29 0.02574303
61 *9:5 *94:8 0.02275741
63 *9:5 *94:3 0.001801216
65 *9:6 *94:2 0.001801216
67 *9:6 *94:7 0.02275741
69 *54:A1 *99:7 0.01103233
71 *9:2 *99:8 0.01103233
73 *9:3 *99:5 0.03097078
75 *9:4 *99:6 0.03097078
77 *9:5 *119:22 0.02281103
79 *9:6 *119:23 0.02281103

*RES
0 *9 *9:7 9.858824
1 *9:2 *54:A1 0.2029412
2 *9:3 *9:2 1.388889
3 *9:5 *9:4 1.388889
4 *9:4 *9:3 0.4735295
5 *9:6 *9:5 8.758824
6 *9:7 *9:6 0.1764706

*END

*D_NET *10 2.665537 //LENGTH 20.577 LUMPCC 0.8656779 DR

*CONN
*P *10 I *L 0 *C 8.463 2.320
*I *38:B1 I *L 0.2877917 *C 6.591 2.140
*I *55:B2 I *L 0.2878673 *C 6.739 2.800
*I *24:A1 I *L 0.3233851 *C 6.147 4.000
*I *41:A1 I *L 0.2963749 *C 5.786 5.800
*I *40:A2 I *L 0.3261601 *C 5.481 6.414
*I *48:A2 I *L 0.3261601 *C 4.593 2.080
*I *39:B2 I *L 0.2801524 *C 1.855 2.260
*I *45:A2 I *L 0.3261601 *C 1.707 2.860
*I *54:A2 I *L 0.3261601 *C 2.003 4.120
*I *42:A2 I *L 0.3261601 *C 2.521 2.080
*I *51:A2 I *L 0.3261601 *C 5.407 2.080
*N *10:12 *C 5.407 2.080
*N *10:13 *C 2.540 2.080
*N *10:14 *C 2.632 2.080
*N *10:15 *C 2.003 4.120
*N *10:16 *C 2.003 4.180
*N *10:17 *C 1.615 4.180
*N *10:18 *C 1.596 4.161
*N *10:19 *C 1.688 2.860
*N *10:20 *C 1.615 2.860
*N *10:21 *C 1.596 2.860
*N *10:22 *C 1.596 2.339
*N *10:23 *C 1.615 2.320
*N *10:24 *C 1.855 2.320
*N *10:25 *C 1.855 2.260
*N *10:26 *C 2.613 2.260
*N *10:27 *C 2.632 2.241
*N *10:28 *C 2.632 2.020
*N *10:29 *C 2.632 2.020
*N *10:30 *C 2.669 1.960
*N *10:31 *C 4.593 1.960
*N *10:32 *C 4.593 2.020
*N *10:33 *C 4.593 2.021
*N *10:34 *C 5.407 2.020
*N *10:35 *C 5.629 6.400
*N *10:36 *C 5.648 6.400
*N *10:37 *C 6.091 6.400
*N *10:38 *C 6.110 6.381
*N *10:39 *C 6.091 5.800
*N *10:40 *C 6.110 5.800
*N *10:41 *C 6.110 5.000
*N *10:42 *C 6.184 5.000
*N *10:43 *C 6.184 4.079
*N *10:44 *C 6.184 4.060
*N *10:45 *C 6.184 4.000
*N *10:46 *C 6.461 4.000
*N *10:47 *C 6.480 3.981
*N *10:48 *C 6.720 2.800
*N *10:49 *C 6.499 2.800
*N *10:50 *C 6.480 2.800
*N *10:51 *C 6.572 2.140
*N *10:52 *C 6.499 2.140
*N *10:53 *C 6.480 2.140
*N *10:54 *C 6.480 2.039
*N *10:55 *C 6.480 2.020
*N *10:56 *C 7.275 2.020
*N *10:57 *C 7.294 2.020
*N *10:58 *C 7.294 2.301
*N *10:59 *C 7.313 2.320

*CAP
0 *10 0.0513664
1 *38:B1 0.001
2 *55:B2 0.001
3 *24:A1 0.001
4 *41:A1 0.01584418
5 *40:A2 0.01012461
6 *48:A2 0.001
7 *39:B2 0.001
8 *45:A2 0.001
9 *54:A2 0.001
10 *42:A2 0.001
11 *51:A2 0.001
12 *10:12 0.00567547
13 *10:13 0.02149327
14 *10:14 0.0244674
15 *10:15 0.005287088
16 *10:16 0.00296008
17 *10:17 1e-06
18 *10:18 0.03970058
19 *10:19 0.0151087
20 *10:20 0.01507457
21 *10:21 0.06511345
22 *10:22 0.02239837
23 *10:23 0.02793319
24 *10:24 0.03208553
25 *10:25 0.06615406
26 *10:26 0.06252384
27 *10:27 0.04179907
28 *10:28 0.04476868
29 *10:29 0.01140609
30 *10:30 0.1475991
31 *10:31 0.1456001
32 *10:32 0.008865395
33 *10:33 0.06784079
34 *10:34 0.1016742
35 *10:35 0.01507098
36 *10:36 0.0602153
37 *10:37 0.06018117
38 *10:38 0.01399512
39 *10:39 0.01528792
40 *10:40 0.02742081
41 *10:41 0.0143408
42 *10:42 0.01915354
43 *10:43 0.01512343
44 *10:44 0.005487919
45 *10:45 0.0438939
46 *10:46 0.04071518
47 *10:47 0.02369768
48 *10:48 0.02898935
49 *10:49 0.02895523
50 *10:50 0.04503041
51 *10:51 0.003992196
52 *10:52 0.003958068
53 *10:53 0.02205207
54 *10:54 0.001614292
55 *10:55 0.07065423
56 *10:56 0.03681656
57 *10:57 0.04652295
58 *10:58 0.04401505
59 *10:59 0.05081015
61 *10:50 *13:9 0.01559207
63 *10:40 *13:5 0.008202414
65 *10:40 *13:8 0.007527222
67 *10:47 *13:8 0.01559207
69 *10:45 *13:6 0.0002212382
71 *10:44 *13:7 0.0002212382
73 *10:43 *13:8 0.01162058
75 *10:43 *13:9 4.615674e-05
77 *10:38 *13:5 0.007527222
79 *10:41 *13:8 0.008202414
81 *10:42 *13:5 0.01162058
83 *10:42 *13:8 4.615674e-05
85 *10:49 *2:3 0.008415274
87 *10:50 *2:5 0.008293196
89 *10:50 *2:6 0.003392794
91 *10:48 *2:2 0.008415274
93 *10:54 *2:6 0.001179494
95 *10:47 *2:5 0.003392794
97 *10:53 *2:5 0.001179494
99 *10:53 *2:6 0.008293196
101 *10:57 *2:6 0.00560488
103 *10:58 *2:5 0.00560488
105 *10:28 *6:4 0.07459284
107 *10:27 *6:3 0.07459284
109 *41:A1 *8:2 0.003666051
111 *41:A1 *8:6 0.002767136
113 *10:39 *8 0.002767136
115 *10:39 *8:3 0.003666051
117 *10:40 *8:4 0.01473799
119 *10:43 *8:5 0.01144317
121 *10:41 *8:5 0.01473799
123 *10:42 *8:4 0.01144317
125 *10:55 *11:15 0.01004786
127 *10:55 *11:14 0.06709975
129 *10:54 *11:17 0.004531184
131 *10:52 *11:14 0.01708137
133 *10:53 *11:16 0.004531184
135 *10:51 *11:15 0.01708137
137 *10:56 *11:15 0.01568827
139 *10:34 *11:13 0.05141148
141 *10:34 *11:14 0.01004786
143 *10:22 *20:19 0.007540225
145 *10:21 *20:20 0.007540225
147 *10:21 *20:19 0.00482231
149 *10:17 *20:22 0.0198858
151 *10:17 *20:23 0.03706007
153 *10:18 *20:20 0.00482231
155 *10:15 *20:16 0.0005709148
157 *10:15 *20:22 0.0004459528
159 *10:16 *20:24 0.03706007
161 *10:16 *20:17 0.02045672
163 *10:16 *20:23 0.0004459528
165 *10:50 *98:7 0.007584386
167 *10:50 *98:9 0.006275741
169 *10:50 *98:8 0.001585048
171 *10:46 *98:12 0.005684464
173 *10:47 *98:10 0.006275741
175 *10:47 *98:8 0.007584386
177 *10:45 *98:11 0.005684464
179 *10:53 *98:7 0.001585048
181 *10:43 *98:9 0.00419919
183 *10:42 *98:10 0.00419919
185 *41:A1 *103:3 0.0004755478
187 *10:39 *103:2 0.0004755478
189 *10:37 *103:2 0.007696104
191 *10:36 *103:3 0.007696104
193 *10:28 *104:4 0.00352806
195 *10:26 *104:7 0.006760079
197 *10:27 *104:5 0.00352806
199 *10:25 *104:6 0.006760079
201 *10:30 *106:4 0.003808708
203 *10:30 *106:7 0.005965298
205 *10:31 *106:8 0.005965298
207 *10:31 *106:3 0.003808708
209 *10:21 *109:6 0.03234113
211 *10:17 *109:4 0.000547341
213 *10:18 *109:5 0.03234113
215 *10:16 *109:3 0.000547341

*RES
0 *10 *10:59 3.382353
1 *10:49 *10:48 0.65
2 *10:50 *10:49 1.388889
3 *10:50 *10:47 3.47353
4 *10:48 *55:B2 2.777778
5 *10:23 *10:22 1.388889
6 *10:22 *10:21 1.532353
7 *10:39 *41:A1 0.8970588
8 *10:40 *10:39 1.388889
9 *10:40 *10:38 1.708824
10 *10:13 *42:A2 2.777778
11 *10:20 *10:19 0.2147059
12 *10:21 *10:20 1.388889
13 *10:21 *10:18 3.826471
14 *10:19 *45:A2 2.777778
15 *10:55 *10:54 1.388889
16 *10:55 *10:34 3.155883
17 *10:54 *10:53 0.2970589
18 *10:46 *10:45 0.814706
19 *10:47 *10:46 1.388889
20 *10:45 *24:A1 2.777778
21 *10:45 *10:44 0.1764706
22 *10:52 *10:51 0.2147059
23 *10:53 *10:52 1.388889
24 *10:53 *10:50 1.941177
25 *10:51 *38:B1 2.777778
26 *10:29 *10:28 1.388889
27 *10:29 *10:14 0.1764706
28 *10:28 *10:27 0.65
29 *10:26 *10:25 2.229412
30 *10:27 *10:26 1.388889
31 *10:12 *51:A2 2.777778
32 *10:17 *10:16 1.141177
33 *10:18 *10:17 1.388889
34 *10:15 *54:A2 2.777778
35 *10:33 *48:A2 2.777778
36 *10:33 *10:32 0.01
37 *10:44 *10:43 1.388889
38 *10:43 *10:42 2.708824
39 *10:25 *39:B2 2.777778
40 *10:25 *10:24 0.1764706
41 *10:56 *10:55 2.338236
42 *10:57 *10:56 1.388889
43 *10:59 *10:58 1.388889
44 *10:58 *10:57 0.8264706
45 *10:37 *10:36 1.302941
46 *10:38 *10:37 1.388889
47 *10:35 *40:A2 0.4352942
48 *10:36 *10:35 2.777778
49 *10:24 *10:23 0.7058824
50 *10:16 *10:15 0.1764706
51 *10:14 *10:13 0.2705882
52 *10:30 *10:29 0.1764706
53 *10:31 *10:30 5.658824
54 *10:32 *10:31 0.1764706
55 *10:34 *10:33 2.394118
56 *10:34 *10:12 0.1764706
57 *10:41 *10:40 2.352941
58 *10:42 *10:41 0.2176471

*END

*D_NET *11 1.137175 //LENGTH 10.264 LUMPCC 0.550477 DR

*CONN
*P *11 I *L 0 *C 8.463 0.760
*I *38:A I *L 0.2724729 *C 6.295 2.080
*I *39:B1 I *L 0.2877917 *C 1.707 2.140
*N *11:3 *C 1.707 2.140
*N *11:4 *C 1.744 2.200
*N *11:5 *C 1.744 2.175
*N *11:6 *C 1.762 2.188
*N *11:7 *C 1.766 2.188
*N *11:8 *C 2.854 2.188
*N *11:9 *C 2.854 2.114
*N *11:10 *C 5.719 2.114
*N *11:11 *C 5.722 2.114
*N *11:12 *C 5.740 2.080
*N *11:13 *C 5.759 2.080
*N *11:14 *C 6.333 2.080
*N *11:15 *C 6.609 2.080
*N *11:16 *C 6.628 2.061
*N *11:17 *C 6.628 0.760
*N *11:18 *C 6.647 0.760

*CAP
0 *11 0.06379527
1 *38:A 0.001
2 *39:B1 0.001
3 *11:3 0.006134296
4 *11:4 0.006306724
5 *11:5 0.01775592
6 *11:6 0.02198775
7 *11:7 0.04620944
8 *11:8 0.05181339
9 *11:9 0.0826429
10 *11:10 0.07703893
11 *11:11 0.00928685
12 *11:12 0.007583059
13 *11:13 0.03534754
14 *11:14 0.04885566
15 *11:15 0.01291773
16 *11:16 0.01566377
17 *11:17 0.01811998
18 *11:18 0.06323902
20 *11:10 *1:22 0.01044232
22 *11:10 *1:26 0.004080396
24 *11:10 *1:37 0.01396177
26 *11:15 *1:17 1.280341e-05
28 *11:16 *1:21 0.01917387
30 *11:17 *1:20 0.01917387
32 *11:14 *1:18 1.280341e-05
34 *11:9 *1:26 0.01044232
36 *11:9 *1:36 0.01396177
38 *11:9 *1:37 0.004080396
40 *11:16 *2:5 0.08128787
42 *11:17 *2:6 0.08128787
44 *11:6 *5:3 0.03632944
46 *11:5 *5:4 0.03632944
48 *11:13 *10:34 0.05141148
50 *11:15 *10:51 0.01708137
52 *11:15 *10:55 0.01004786
54 *11:15 *10:56 0.01568827
56 *11:16 *10:53 0.004531184
58 *11:17 *10:54 0.004531184
60 *11:14 *10:34 0.01004786
62 *11:14 *10:52 0.01708137
64 *11:14 *10:55 0.06709975
66 *11:6 *21:4 0.0111899
68 *11:5 *21:5 0.0111899

*RES
0 *11 *11:18 5.341177
1 *11:13 *11:12 1.388889
2 *11:12 *11:11 0.1
3 *11:11 *11:10 0.3472222
4 *11:10 *11:9 4.774167
5 *11:6 *11:5 0.0382353
6 *11:7 *11:6 0.3472222
7 *11:15 *11:14 0.8132353
8 *11:16 *11:15 1.388889
9 *11:18 *11:17 1.388889
10 *11:17 *11:16 3.826471
11 *11:14 *38:A 2.777778
12 *11:14 *11:13 1.686765
13 *11:4 *11:3 0.1764706
14 *11:5 *11:4 1.388889
15 *11:3 *39:B1 2.777778
16 *11:8 *11:7 1.814167
17 *11:9 *11:8 0.1233333

*END

*D_NET *12 1.088515 //LENGTH 9.256 LUMPCC 0.6133731 DR

*CONN
*I *25:X O *L 0 *C 4.889 5.080
*I *38:B2 I *L 0.2801524 *C 6.739 2.260
*P *12 O *L 0 *C 7.701 7.900
*N *12:3 *C 7.682 7.900
*N *12:4 *C 7.017 7.900
*N *12:5 *C 6.998 7.881
*N *12:6 *C 6.998 5.020
*N *12:7 *C 6.924 5.020
*N *12:8 *C 6.758 2.260
*N *12:9 *C 6.905 2.260
*N *12:10 *C 6.924 2.279
*N *12:11 *C 6.924 5.020
*N *12:12 *C 6.905 5.020
*N *12:13 *C 5.555 5.020
*N *12:14 *C 5.555 5.080
*N *12:15 *C 4.908 5.080

*CAP
0 *25:X 0.001
1 *38:B2 0.001
2 *12 0.001
3 *12:3 0.02659547
4 *12:4 0.02656134
5 *12:5 0.06402386
6 *12:6 0.0674623
7 *12:7 0.001053782
8 *12:8 0.01975776
9 *12:9 0.01972363
10 *12:10 0.03519068
11 *12:11 0.03912664
12 *12:12 0.04120878
13 *12:13 0.04708029
14 *12:14 0.04509727
15 *12:15 0.0392599
17 *12:5 *13:5 0.02021841
19 *12:6 *13:8 0.02021841
21 *12:12 *31:CK 0.0009169806
23 *12:11 *1:12 0.04298019
25 *12:11 *1:14 0.004353186
27 *12:10 *1:14 0.04298019
29 *12:10 *1:15 0.003397283
31 *12:5 *1:10 0.02369483
33 *12:5 *1:12 0.003415674
35 *12:13 *1:11 0.0009169806
37 *12:7 *1:12 0.0009559027
39 *12:6 *1:12 0.02369483
41 *12:6 *1:14 0.003415674
43 *12:12 *31:Q 0.08555155
45 *12:15 *19:27 0.00466039
47 *12:14 *19:28 0.00466039
49 *12:13 *19:33 0.08555155
51 *12:11 *80:4 0.01790469
53 *12:10 *80:3 0.01790469
55 *12:11 *82:8 0.05593891
57 *12:10 *82:9 0.05593891
59 *12:11 *87:37 0.04597155
61 *12:9 *87:40 0.001080207
63 *12:10 *87:38 0.04597155
65 *12:8 *87:39 0.001080207

*RES
0 *25:X *12:15 2.777778
1 *12:12 *12:11 1.388889
2 *12:11 *12:10 8.061765
3 *12:11 *12:7 0.01
4 *12:11 *12:6 0.2176471
5 *12:15 *12:14 1.902941
6 *12:9 *12:8 0.432353
7 *12:10 *12:9 1.388889
8 *12:8 *38:B2 2.777778
9 *12:4 *12:3 1.955883
10 *12:5 *12:4 1.388889
11 *12:3 *12 2.777778
12 *12:14 *12:13 0.1764706
13 *12:13 *12:12 3.970588
14 *12:6 *12:5 8.414706

*END

*D_NET *14 1.240936 //LENGTH 9.923 LUMPCC 0.528592 DR

*CONN
*I *28:Q O *L 0 *C 6.340 1.480
*I *51:B1 I *L 0.3149807 *C 5.185 2.140
*I *68:A1 I *L 0.503657 *C 5.407 4.600
*I *69:A1 I *L 0.2815 *C 6.073 4.600
*P *14 O *L 0 *C 4.297 7.900
*N *14:5 *C 4.316 7.900
*N *14:6 *C 5.351 7.900
*N *14:7 *C 5.370 7.881
*N *14:8 *C 6.054 4.600
*N *14:9 *C 5.436 4.600
*N *14:10 *C 5.370 4.540
*N *14:11 *C 5.370 4.540
*N *14:12 *C 5.204 2.140
*N *14:13 *C 5.351 2.140
*N *14:14 *C 5.370 2.140
*N *14:15 *C 5.370 1.499
*N *14:16 *C 5.389 1.480

*CAP
0 *28:Q 0.08362868
1 *51:B1 0.001
2 *68:A1 0.001
3 *69:A1 0.001
4 *14 0.001
5 *14:5 0.03882004
6 *14:6 0.03878591
7 *14:7 0.1015236
8 *14:8 0.03321376
9 *14:9 0.0365646
10 *14:10 0.005667905
11 *14:11 0.1600851
12 *14:12 0.03150187
13 *14:13 0.03146775
14 *14:14 0.0613253
15 *14:15 0.002686888
16 *14:16 0.08307242
18 *28:Q *3:5 0.002997245
20 *14:11 *3:3 0.003014839
22 *14:16 *3:6 0.002997245
24 *14:15 *3:4 0.01877282
26 *14:14 *3:3 0.01877282
28 *14:14 *3:4 0.003014839
30 *14:11 *79:5 0.009734834
32 *14:11 *79:6 0.07155085
34 *14:9 *79:4 0.0002987712
36 *14:9 *79:8 0.001466721
38 *14:8 *79:3 0.0002987712
40 *14:8 *79:7 0.001466721
42 *14:14 *79:5 0.07155085
44 *14:7 *79:6 0.009734834
46 *28:Q *107:2 0.00179786
48 *14:11 *107:5 0.009640128
50 *14:16 *107:3 0.00179786
52 *14:15 *107:4 0.03940676
54 *14:13 *107:6 0.001333477
56 *14:14 *107:4 0.009640128
58 *14:14 *107:5 0.03940676
60 *14:12 *107:7 0.001333477
62 *14:9 *115:5 0.02562948
64 *14:8 *115:4 0.02562948
66 *14:9 *117:3 0.02564672
68 *14:8 *117:2 0.02564672
70 *14:11 *118:40 0.02227833
72 *14:11 *118:16 0.02780091
74 *14:13 *118:38 0.0001403934
76 *14:13 *118:17 0.002785797
78 *14:14 *118:39 0.006267506
80 *14:14 *118:40 0.01015912
82 *14:12 *118:37 0.0001403934
84 *14:12 *118:18 0.002785797
86 *14:7 *118:11 0.01764179
88 *14:7 *118:16 0.01601083

*RES
0 *28:Q *14:16 2.797059
1 *14:10 *14:9 0.1764706
2 *14:11 *14:10 1.388889
3 *14:11 *14:7 9.826471
4 *14:9 *68:A1 2.777778
5 *14:9 *14:8 1.817647
6 *14:8 *69:A1 2.777778
7 *14:16 *14:15 1.388889
8 *14:15 *14:14 1.885294
9 *14:13 *14:12 0.432353
10 *14:14 *14:13 1.388889
11 *14:14 *14:11 7.058824
12 *14:12 *51:B1 2.777778
13 *14:6 *14:5 3.044118
14 *14:7 *14:6 1.388889
15 *14:5 *14 2.777778

*END

*D_NET *15 1.28517 //LENGTH 10.090 LUMPCC 0.5000685 DR

*CONN
*I *29:Q O *L 0 *C 4.786 1.480
*I *48:B1 I *L 0.3149807 *C 4.371 2.140
*I *67:A2 I *L 0.2500283 *C 4.075 4.567
*I *66:A2 I *L 0.2927814 *C 3.705 5.140
*P *15 O *L 0 *C 2.669 7.900
*N *15:5 *C 2.688 7.900
*N *15:6 *C 4.019 7.900
*N *15:7 *C 4.038 7.881
*N *15:8 *C 3.724 5.140
*N *15:9 *C 4.019 5.140
*N *15:10 *C 4.038 5.140
*N *15:11 *C 4.075 4.600
*N *15:12 *C 4.075 4.600
*N *15:13 *C 4.038 4.540
*N *15:14 *C 4.038 4.540
*N *15:15 *C 4.352 2.140
*N *15:16 *C 4.260 2.140
*N *15:17 *C 4.260 2.020
*N *15:18 *C 4.057 2.020
*N *15:19 *C 4.038 2.020
*N *15:20 *C 4.038 1.499
*N *15:21 *C 4.057 1.480

*CAP
0 *29:Q 0.07430093
1 *48:B1 0.001
2 *67:A2 0.01022511
3 *66:A2 0.001
4 *15 0.001
5 *15:5 0.04867417
6 *15:6 0.04864004
7 *15:7 0.08605795
8 *15:8 0.04877889
9 *15:9 0.04874476
10 *15:10 0.09471734
11 *15:11 0.009702983
12 *15:12 0.008256429
13 *15:13 0.008354256
14 *15:14 0.04510458
15 *15:15 0.0174987
16 *15:16 0.0277721
17 *15:17 0.03645216
18 *15:18 0.02614463
19 *15:19 0.05445557
20 *15:20 0.01447608
21 *15:21 0.07374468
23 *15:20 *4:4 0.008386509
25 *15:14 *4:3 0.004093732
27 *15:19 *4:3 0.008386509
29 *15:19 *4:4 0.004093732
31 *15:14 *84:9 0.08110158
33 *15:19 *84:8 0.08110158
35 *15:14 *93:5 0.08211246
37 *15:18 *93:2 0.0007926768
39 *15:19 *93:4 0.08211246
41 *15:17 *48:C 0.0007926768
43 *15:17 *93:2 0.0005226007
45 *15:16 *93:3 0.0005226007
47 *15:14 *94:5 0.006821593
49 *15:14 *94:6 0.01274867
51 *15:19 *94:5 0.01274867
53 *15:10 *94:6 0.006821593
55 *15:14 *100:5 0.01588845
57 *15:14 *100:6 0.002550928
59 *15:19 *100:5 0.002550928
61 *15:10 *100:5 0.02032424
63 *15:10 *100:6 0.01588845
65 *15:7 *100:6 0.02032424
67 *15:20 *106:5 0.007991175
69 *15:14 *106:6 0.001044427
71 *15:18 *106:7 0.005655224
73 *15:19 *106:5 0.001044427
75 *15:19 *106:6 0.007991175
77 *15:17 *106:8 0.005655224

*RES
0 *29:Q *15:21 2.144118
1 *15:21 *15:20 1.388889