*SPEF "1481-1998"
*DESIGN "count_downtimer"
*DATE "Sun Dec 12 16:53:03 2021"
*VENDOR "Synopsys, Inc."
*PROGRAM "icc2 /packages/synopsys/icc2/S-2021.06-SP1/linux64/nwtn/bin/icc2_exec"
*VERSION "S-2021.06-SP1 Jul 13, 2021"
*DESIGN_FLOW "ICC2 SPEF DR"
*DIVIDER /
*DELIMITER :
*BUS_DELIMITER [ ]
*T_UNIT 1 NS
*C_UNIT 1 FF
*R_UNIT 1 OHM
*L_UNIT 1 HENRY

// XY_UNIT 1 UM
// PARASITIC_TECH tlup_max at 125.000 degree

*NAME_MAP
*1 clk
*2 in[7]
*3 in[6]
*4 in[5]
*5 in[4]
*6 in[3]
*7 in[2]
*8 in[1]
*9 in[0]
*10 latch
*11 dec
*12 zero
*13 value[7]
*14 value[6]
*15 value[5]
*16 value[4]
*17 value[3]
*18 value[2]
*19 value[1]
*20 value[0]
*21 dvd2
*22 VDD
*23 VSS
*24 U27
*25 U30
*26 U31
*27 value_reg[4]
*28 value_reg[6]
*29 value_reg[5]
*30 value_reg[0]
*31 value_reg[1]
*32 value_reg[2]
*33 value_reg[3]
*34 value_reg[7]
*35 U36
*36 U37
*37 U38
*38 U39
*39 U40
*40 U41
*41 U43
*42 U45
*43 U46
*44 U47
*45 U48
*46 U49
*47 U50
*48 U51
*49 U52
*50 U53
*51 U54
*52 U55
*53 U56
*54 U57
*55 U59
*56 U60
*57 U61
*58 U62
*59 U63
*60 U64
*61 U65
*62 U66
*63 U67
*64 U68
*65 U69
*66 U70
*67 U71
*68 U72
*69 U73
*70 U74
*71 ctmTdsLR_1_2405
*72 ctmTdsLR_1_2406
*73 ctmTdsLR_1_2407
*74 N8
*75 N9
*76 N10
*77 N11
*78 N12
*79 N13
*80 N14
*81 n1
*82 n4
*83 n5
*84 n6
*85 n8
*86 n9
*87 n11
*88 n12
*89 n14
*90 n15
*91 n16
*92 n17
*93 n18
*94 n19
*95 n20
*96 n21
*97 n22
*98 n23
*99 n24
*100 n26
*101 n27
*102 n28
*103 n29
*104 n30
*105 n31
*106 n32
*107 n33
*108 n34
*109 n35
*110 n37
*111 n38
*112 n39
*113 n40
*114 n41
*115 n42
*116 n43
*117 n44
*118 n45
*119 n46

*PORTS

*1 I *C 4.297 0.074
*2 I *C 6.443 0.074
*3 I *C 5.037 0.074
*4 I *C 3.631 0.074
*5 I *C 2.225 0.074
*6 I *C 0.819 0.074
*7 I *C 8.520 7.000
*8 I *C 8.520 5.440
*9 I *C 8.520 3.880
*10 I *C 8.520 2.320
*11 I *C 8.520 0.760
*12 O *C 7.701 7.926
*13 O *C 5.999 7.926
*14 O *C 4.297 7.926
*15 O *C 2.669 7.926
*16 O *C 0.967 7.926
*17 O *C 0.074 7.000
*18 O *C 0.074 5.440
*19 O *C 0.074 3.880
*20 O *C 0.074 2.320
*21 I *C 0.074 0.760
*22 I *C 4.297 4.000
*23 I *C 4.297 4.000

*D_NET *13 0.5473011 //LENGTH 5.468 LUMPCC 0.3095676 DR

*CONN
*I *34:Q O *L 0 *C 6.718 3.520
*I *70:A1 I *L 0.503657 *C 6.665 4.000
*P *13 O *L 0 *C 5.999 7.900
*N *13:3 *C 6.018 7.900
*N *13:4 *C 6.609 7.900
*N *13:5 *C 6.628 7.881
*N *13:6 *C 6.665 4.000
*N *13:7 *C 6.628 4.060
*N *13:8 *C 6.628 4.060
*N *13:9 *C 6.628 3.539
*N *13:10 *C 6.647 3.520

*CAP
0 *34:Q 0.01581913
1 *70:A1 0.001
2 *13 0.001
3 *13:3 0.02639869
4 *13:4 0.02634734
5 *13:5 0.06373797
6 *13:6 0.006732177
7 *13:7 0.006910139
8 *13:8 0.07112419
9 *13:9 0.003618053
10 *13:10 0.01504567
11 *13:8 *1:12 0.054657
13 *13:8 *1:14 0.0340839
15 *13:5 *1:12 0.0340839
17 *13:5 *1:10 0.03709182
19 *13:9 *1:14 0.01756518
21 *13:6 *10:45 0.0002019261
23 *13:7 *10:44 0.0002019261
25 *13:8 *10:40 0.007462718
27 *13:8 *10:47 0.01741757
29 *13:8 *10:43 0.01181286
31 *13:8 *10:41 0.008030369
33 *13:8 *10:42 4.630311e-05
35 *13:5 *10:40 0.008030369
37 *13:5 *10:38 0.007462718
39 *13:5 *10:42 0.01181286
41 *13:9 *10:50 0.01741757
43 *13:9 *10:43 4.630311e-05
45 *13:8 *12:6 0.02107117
47 *13:5 *12:5 0.02107117

*RES
0 *34:Q *13:10 0.2088236
1 *13:6 *70:A1 2.777778
2 *13:7 *13:6 0.1764706
3 *13:8 *13:7 1.388889
4 *13:8 *13:5 11.23824
5 *13:4 *13:3 1.738235
6 *13:5 *13:4 1.388889
7 *13:3 *13 2.777778
8 *13:10 *13:9 1.388889
9 *13:9 *13:8 1.532353

*END

*D_NET *1 2.462746 //LENGTH 17.958 LUMPCC 1.509934 DR

*CONN
*P *1 I *L 0 *C 4.297 0.127
*I *33:CK I *L 0.2706877 *C 3.372 1.600
*I *27:CK I *L 0.2706877 *C 3.298 3.400
*I *30:CK I *L 0.2706877 *C 2.587 4.600
*I *29:CK I *L 0.2706877 *C 4.881 1.600
*I *34:CK I *L 0.2706877 *C 6.804 3.400
*I *31:CK I *L 0.2706877 *C 6.804 5.200
*I *32:CK I *L 0.2706877 *C 6.804 6.400
*I *28:CK I *L 0.2706877 *C 6.434 1.600
*N *1:9 *C 6.776 6.400
*N *1:10 *C 6.776 6.381
*N *1:11 *C 6.776 5.200
*N *1:12 *C 6.776 5.200
*N *1:13 *C 6.776 3.400
*N *1:14 *C 6.776 3.400
*N *1:15 *C 6.776 1.619
*N *1:16 *C 6.776 1.600
*N *1:17 *C 6.746 1.600
*N *1:18 *C 6.434 1.600
*N *1:19 *C 6.406 1.600
*N *1:20 *C 6.406 1.579
*N *1:21 *C 6.424 1.596
*N *1:22 *C 6.421 1.596
*N *1:23 *C 4.852 0.279
*N *1:24 *C 4.852 1.600
*N *1:25 *C 4.852 1.596
*N *1:26 *C 4.852 1.596
*N *1:27 *C 2.558 4.600
*N *1:28 *C 2.558 4.600
*N *1:29 *C 2.576 3.668
*N *1:30 *C 2.579 3.668
*N *1:31 *C 3.351 3.668
*N *1:32 *C 3.354 3.668
*N *1:33 *C 3.298 3.400
*N *1:34 *C 3.372 3.400
*N *1:35 *C 3.372 1.596
*N *1:36 *C 3.376 1.596
*N *1:37 *C 4.500 1.596
*N *1:38 *C 4.500 1.596
*N *1:39 *C 4.482 0.179
*N *1:40 *C 4.463 0.160
*N *1:41 *C 4.316 0.160
*N *1:42 *C 4.297 0.160

*CAP
0 *1 0.006337572
1 *33:CK 0.001
2 *27:CK 0.001
3 *30:CK 0.01071042
4 *29:CK 0.02400918
5 *34:CK 0.01385941
6 *31:CK 0.01225613
7 *32:CK 0.0125499
8 *28:CK 0.001
9 *1:9 0.01177644
10 *1:10 0.01154947
11 *1:11 0.01148267
12 *1:12 0.02921799
13 *1:13 0.01308595
14 *1:14 0.04901721
15 *1:15 0.03152319
16 *1:16 0.003927602
17 *1:17 0.004688917
18 *1:18 0.01987843
19 *1:19 0.01911711
20 *1:20 0.03361547
21 *1:21 0.03824401
22 *1:22 0.04981119
23 *1:23 0.04787712
24 *1:24 0.02241677
25 *1:25 0.05029022
26 *1:26 0.05993987
27 *1:27 0.009936964
28 *1:28 0.02619442
29 *1:29 0.02830498
30 *1:30 0.03062655
31 *1:31 0.03062655
32 *1:32 0.009468419
33 *1:33 0.005888472
34 *1:34 0.05313511
35 *1:35 0.04653649
36 *1:36 0.0297325
37 *1:37 0.03975988
38 *1:38 0.02021274
39 *1:39 0.01543378
40 *1:40 0.005552902
41 *1:41 0.005604255
42 *1:42 0.00561547
43 *1:12 *13:5 0.0340839
45 *1:12 *13:8 0.054657
47 *1:10 *13:5 0.03709182
49 *1:14 *13:8 0.0340839
51 *1:14 *13:9 0.01756518
53 *1:20 *2:6 0.005969943
55 *1:15 *2:6 0.09323154
57 *1:21 *2:5 0.005969943
59 *1:14 *2:5 0.09323154
61 *1:38 *4:3 0.09134044
63 *1:40 *4:5 0.007681189
65 *1:39 *4:4 0.09134044
67 *1:41 *4:6 0.007681189
69 *1:25 *4:4 0.0007215188
71 *1:23 *4:3 0.0007215188
73 *1:20 *11:17 0.02074186
75 *1:36 *11:9 0.01392017
77 *1:37 *11:10 0.01392017
79 *1:37 *11:9 0.004010903
81 *1:21 *11:16 0.02074186
83 *1:22 *11:10 0.01024698
85 *1:26 *11:10 0.004010903
87 *1:26 *11:9 0.01024698
89 *1:17 *11:15 1.214071e-05
91 *1:18 *11:14 1.214071e-05
93 *31:CK *12:12 0.0009955305
95 *1:15 *12:10 0.003800905
97 *1:11 *12:13 0.0009955305
99 *1:12 *12:11 0.04817317
101 *1:12 *12:5 0.003704026
103 *1:12 *12:7 0.001069739
105 *1:12 *12:6 0.02573455
107 *1:10 *12:5 0.02573455
109 *1:14 *12:11 0.004870643
111 *1:14 *12:10 0.04817317
113 *1:14 *12:6 0.003704026
115 *1:29 *19:16 0.07782816
117 *1:28 *19:19 0.07782816
119 *30:CK *20:24 9.828116e-05
121 *30:CK *20:15 0.002804089
123 *1:29 *20:25 0.07442803
125 *1:27 *20:23 9.828116e-05
127 *1:27 *20:27 0.002804089
129 *1:28 *20:26 0.07442803
131 *34:CK *82:7 0.000239563
133 *1:15 *82:9 0.09589572
135 *1:13 *82:6 0.000239563
137 *1:14 *82:8 0.09589572
139 *1:35 *89:2 0.01656632
141 *1:34 *89:3 0.01656632
143 *1:32 *90:5 0.008947222
145 *1:35 *90:4 0.01746331
147 *1:34 *90:4 0.008947222
149 *1:34 *90:5 0.01746331
151 *1:32 *92:6 0.007617389
153 *1:35 *92:5 0.02098806
155 *1:34 *92:5 0.007617389
157 *1:34 *92:6 0.02098806
159 *1:25 *95:2 0.01199517
161 *1:23 *95:3 0.01199517

*RES
0 *1 *1:42 0.1617647
1 *1:32 *1:31 0.3472222
2 *1:31 *1:30 1.285
3 *1:29 *1:28 2.741177
4 *1:30 *1:29 0.3472222
5 *1:27 *30:CK 0.1617647
6 *1:28 *1:27 1.388889
7 *1:19 *1:18 0.08294119
8 *1:20 *1:19 1.388889
9 *1:35 *33:CK 1.388889
10 *1:35 *1:34 5.305883
11 *1:36 *1:35 0.3472222
12 *1:33 *27:CK 1.388889
13 *1:38 *1:37 0.3472222
14 *1:37 *1:36 1.874167
15 *1:37 *1:26 0.5866667
16 *1:40 *1:39 1.388889
17 *1:39 *1:38 4.167647
18 *1:42 *1:41 2.777778
19 *1:41 *1:40 0.432353
20 *1:16 *1:15 1.388889
21 *1:15 *1:14 5.238235
22 *1:21 *1:20 0.05
23 *1:22 *1:21 0.3472222
24 *1:25 *1:24 1.388889
25 *1:25 *1:23 3.87353
26 *1:26 *1:25 0.3472222
27 *1:26 *1:22 2.615834
28 *1:24 *29:CK 0.1617647
29 *1:11 *31:CK 0.1617647
30 *1:12 *1:11 1.388889
31 *1:12 *1:10 3.47353
32 *1:9 *32:CK 0.1617647
33 *1:10 *1:9 1.388889
34 *1:13 *34:CK 0.1617647
35 *1:14 *1:13 1.388889
36 *1:14 *1:12 5.294118
37 *1:34 *1:33 0.2176471
38 *1:34 *1:32 0.7882354
39 *1:17 *1:16 0.0882353
40 *1:18 *1:17 0.9170589
41 *1:18 *28:CK 0.01

*END

*D_NET *2 0.6257405 //LENGTH 3.576 LUMPCC 0.4487066 DR

*CONN
*P *2 I *L 0 *C 6.443 0.100
*I *55:B1 I *L 0.3149807 *C 6.813 2.860
*N *2:2 *C 6.794 2.860
*N *2:3 *C 6.702 2.860
*N *2:4 *C 6.702 2.920
*N *2:5 *C 6.702 2.901
*N *2:6 *C 6.702 0.119
*N *2:7 *C 6.683 0.100
*N *2:8 *C 6.462 0.100

*CAP
0 *2 0.001
1 *55:B1 0.001
2 *2:2 0.01287418
3 *2:3 0.01984321
4 *2:4 0.008858511
5 *2:5 0.05383042
6 *2:6 0.05383042
7 *2:7 0.0128729
8 *2:8 0.01292426
9 *2:5 *1:14 0.09323154
11 *2:5 *1:21 0.005969943
13 *2:6 *1:15 0.09323154
15 *2:6 *1:20 0.005969943
17 *2:2 *10:48 0.01003425
19 *2:5 *10:50 0.008945365
21 *2:5 *10:47 0.003651287
23 *2:5 *10:53 0.001279347
25 *2:5 *10:58 0.005580102
27 *2:6 *10:50 0.003651287
29 *2:6 *10:54 0.001279347
31 *2:6 *10:53 0.008945365
33 *2:6 *10:57 0.005580102
35 *2:3 *10:49 0.01003425
37 *2:5 *11:16 0.09566144
39 *2:6 *11:17 0.09566144

*RES
0 *2 *2:8 2.777778
1 *2:2 *55:B1 2.777778
2 *2:4 *2:3 0.1764706
3 *2:5 *2:4 1.388889
4 *2:7 *2:6 1.388889
5 *2:6 *2:5 8.182353
6 *2:8 *2:7 0.65
7 *2:3 *2:2 0.2705883

*END

*D_NET *3 0.3737246 //LENGTH 3.249 LUMPCC 0.07598912 DR

*CONN
*P *3 I *L 0 *C 5.037 0.131
*I *51:A1 I *L 0.2963749 *C 5.430 2.200
*N *3:2 *C 5.499 2.200
*N *3:3 *C 5.518 2.181
*N *3:4 *C 5.518 1.120
*N *3:5 *C 5.499 1.120
*N *3:6 *C 5.056 1.120
*N *3:7 *C 5.037 1.101

*CAP
0 *3 0.05835018
1 *51:A1 0.02269026
2 *3:2 0.0219168
3 *3:3 0.0465274
4 *3:4 0.04934845
5 *3:5 0.02061146
6 *3:6 0.02066281
7 *3:7 0.05762807
8 *3:3 *14:11 0.003362277
10 *3:3 *14:14 0.02094881
12 *3:5 *28:Q 0.002913729
14 *3:4 *14:15 0.02094881
16 *3:4 *14:14 0.003362277
18 *3:6 *14:16 0.002913729
20 *3:3 *107:5 0.01050329
22 *3:5 *107:2 0.0002664514
24 *3:4 *107:4 0.01050329
26 *3:6 *107:3 0.0002664514

*RES
0 *3 *3:7 2.852942
1 *3:2 *51:A1 0.2029411
2 *3:3 *3:2 1.388889
3 *3:5 *3:4 1.388889
4 *3:4 *3:3 3.120589
5 *3:7 *3:6 2.777778
6 *3:6 *3:5 1.302941

*END

*D_NET *4 0.4093589 //LENGTH 3.258 LUMPCC 0.2500711 DR

*CONN
*P *4 I *L 0 *C 3.631 0.131
*I *48:A1 I *L 0.2963749 *C 4.408 2.200
*N *4:2 *C 4.408 2.260
*N *4:3 *C 4.408 2.241
*N *4:4 *C 4.408 0.299
*N *4:5 *C 4.389 0.280
*N *4:6 *C 3.650 0.280
*N *4:7 *C 3.631 0.261

*CAP
0 *4 0.01009088
1 *48:A1 0.005217571
2 *4:2 0.0098422
3 *4:3 0.03456807
4 *4:4 0.03456807
5 *4:5 0.02779045
6 *4:6 0.0278418
7 *4:7 0.009368776
8 *4:3 *1:23 0.0007215188
10 *4:3 *1:38 0.09134044
12 *4:5 *1:40 0.007681189
14 *4:4 *1:25 0.0007215188
16 *4:4 *1:39 0.09134044
18 *4:6 *1:41 0.007681189
20 *4:3 *15:14 0.004177771
22 *4:3 *15:19 0.008583972
24 *4:4 *15:20 0.008583972
26 *4:4 *15:19 0.004177771
28 *4:3 *83:14 0.01253067
30 *4:4 *83:15 0.01253067

*RES
0 *4 *4:7 0.382353
1 *4:2 *48:A1 0.1764706
2 *4:3 *4:2 1.388889
3 *4:5 *4:4 1.388889
4 *4:4 *4:3 5.711765
5 *4:7 *4:6 2.777778
6 *4:6 *4:5 2.173529

*END

*D_NET *5 0.3310087 //LENGTH 3.294 LUMPCC 0.1546016 DR

*CONN
*P *5 I *L 0 *C 2.225 0.131
*I *45:A1 I *L 0.2963749 *C 1.892 2.800
*N *5:2 *C 1.892 2.740
*N *5:3 *C 1.892 2.721
*N *5:4 *C 1.892 0.299
*N *5:5 *C 1.911 0.280
*N *5:6 *C 2.206 0.280
*N *5:7 *C 2.225 0.261

*CAP
0 *5 0.01017726
1 *45:A1 0.001080262
2 *5:2 0.004457636
3 *5:3 0.06559134
4 *5:4 0.06559134
5 *5:5 0.01000135
6 *5:6 0.0100527
7 *5:7 0.00945516
8 *5:5 *6:6 0.01044848
10 *5:6 *6:5 0.01044848
12 *5:3 *11:6 0.04070748
14 *5:4 *11:5 0.04070748
16 *5:3 *104:5 0.0146879
18 *5:4 *104:4 0.0146879
20 *45:A1 *118:28 0.003414811
22 *5:2 *118:27 0.003414811
24 *5:3 *118:24 0.008042126
26 *5:4 *118:25 0.008042126

*RES
0 *5 *5:7 0.382353
1 *5:2 *45:A1 0.1764706
2 *5:3 *5:2 1.388889
3 *5:5 *5:4 1.388889
4 *5:4 *5:3 7.12353
5 *5:7 *5:6 2.777778
6 *5:6 *5:5 0.8676471

*END

*D_NET *6 0.4875942 //LENGTH 4.076 LUMPCC 0.2699506 DR

*CONN
*P *6 I *L 0 *C 0.819 0.100
*I *42:A1 I *L 0.2963749 *C 2.558 2.200
*N *6:2 *C 2.558 2.140
*N *6:3 *C 2.558 2.121
*N *6:4 *C 2.558 0.119
*N *6:5 *C 2.539 0.100
*N *6:6 *C 0.838 0.100

*CAP
0 *6 0.001
1 *42:A1 0.0051395
2 *6:2 0.009261772
3 *6:3 0.03750265
4 *6:4 0.03750265
5 *6:5 0.06359284
6 *6:6 0.0636442
7 *6:5 *5:6 0.01044848
9 *6:6 *5:5 0.01044848
11 *6:3 *10:27 0.08776651
13 *6:4 *10:28 0.08776651
15 *6:3 *104:5 0.03676033
17 *6:4 *104:4 0.03676033

*RES
0 *6 *6:6 2.777778
1 *6:2 *42:A1 0.1764706
2 *6:3 *6:2 1.388889
3 *6:5 *6:4 1.388889
4 *6:4 *6:3 5.888236
5 *6:6 *6:5 5.002942

*END

*D_NET *7 0.3070513 //LENGTH 3.795 LUMPCC 0 DR

*CONN
*P *7 I *L 0 *C 8.463 7.000
*I *40:A1 I *L 0.2963749 *C 5.370 6.400
*N *7:2 *C 5.370 6.520
*N *7:3 *C 5.407 6.520
*N *7:4 *C 5.407 7.000

*CAP
0 *7 0.1165315
1 *40:A1 0.006656933
2 *7:2 0.0122539
3 *7:3 0.03033719
4 *7:4 0.1412718

*RES
0 *7 *7:4 8.988236
1 *7:2 *40:A1 0.3529412
2 *7:3 *7:2 0.1088235
3 *7:4 *7:3 1.411765

*END

*D_NET *8 0.4423693 //LENGTH 4.322 LUMPCC 0.1532772 DR

*CONN
*P *8 I *L 0 *C 8.463 5.440
*I *41:A2 I *L 0.3261601 *C 5.777 5.680
*N *8:2 *C 5.796 5.680
*N *8:3 *C 5.869 5.680
*N *8:4 *C 5.888 5.661
*N *8:5 *C 5.888 5.440
*N *8:6 *C 5.907 5.440

*CAP
0 *8 0.1126991
1 *41:A2 0.001
2 *8:2 0.01380657
3 *8:3 0.01375521
4 *8:4 0.01651974
5 *8:5 0.01938592
6 *8:6 0.1119256
7 *8 *10:39 0.002689496
9 *8:2 *41:A1 0.004133857
11 *8:3 *10:39 0.004133857
13 *8:4 *10:40 0.01590621
15 *8:4 *10:42 0.01213093
17 *8:6 *41:A1 0.002689496
19 *8:5 *10:43 0.01213093
21 *8:5 *10:41 0.01590621
23 *8 *102:3 0.003225753
25 *8:2 *102:4 0.0001783279
27 *8:3 *102:3 0.0001783279
29 *8:4 *102:6 0.03837401
31 *8:6 *102:4 0.003225753
33 *8:5 *102:5 0.03837401

*RES
0 *8 *8:6 7.517647
1 *8:2 *41:A2 2.777778
2 *8:3 *8:2 0.2147059
3 *8:4 *8:3 1.388889
4 *8:6 *8:5 1.388889
5 *8:5 *8:4 0.65

*END

*D_NET *9 1.355693 //LENGTH 8.146 LUMPCC 0.7417648 DR

*CONN
*P *9 I *L 0 *C 8.463 3.880
*I *54:A1 I *L 0.2963749 *C 2.026 4.000
*N *9:2 *C 2.095 4.000
*N *9:3 *C 2.114 3.981
*N *9:4 *C 2.114 3.820
*N *9:5 *C 2.133 3.820
*N *9:6 *C 5.111 3.820
*N *9:7 *C 5.111 3.880

*CAP
0 *9 0.1516817
1 *54:A1 0.00618591
2 *9:2 0.005412454
3 *9:3 0.01738613
4 *9:4 0.02022081
5 *9:5 0.1265393
6 *9:6 0.1310663
7 *9:7 0.1554351
8 *54:A1 *19 0.001280783
10 *9:2 *19:15 0.001280783
12 *9:5 *19 0.05781324
14 *9:6 *19:15 0.05781324
16 *9 *80:5 0.02717977
18 *9:7 *80:6 0.02717977
20 *9 *86:6 0.002111562
22 *9:3 *86:19 0.04350387
24 *9:5 *86:16 0.0008966285
26 *9:4 *86:20 0.04350387
28 *9:6 *86:15 0.0008966285
30 *9:7 *86:14 0.002111562
32 *9 *87:30 0.03069918
34 *9 *87:12 0.02891657
36 *9 *87:29 0.03567743
38 *9:5 *87:27 0.002597601
40 *9:5 *87:14 0.004052884
42 *9:5 *87:28 0.02012804
44 *9:5 *87:13 0.01232027
46 *9:6 *87:27 0.004052884
48 *9:6 *87:14 0.01232027
50 *9:6 *87:28 0.002597601
52 *9:6 *87:29 0.02012804
54 *9:7 *87:30 0.02891657
56 *9:7 *87:28 0.03567743
58 *9:7 *87:29 0.03069918
60 *9:5 *94:8 0.02713349
62 *9:5 *94:3 0.001612595
64 *9:6 *94:2 0.001612595
66 *9:6 *94:7 0.02713349
68 *54:A1 *99:7 0.01315414
70 *9:2 *99:8 0.01315414
72 *9:3 *99:5 0.03460115
74 *9:4 *99:6 0.03460115
76 *9:5 *119:22 0.02720324
78 *9:6 *119:23 0.02720324

*RES
0 *9 *9:7 9.858824
1 *9:2 *54:A1 0.2029412
2 *9:3 *9:2 1.388889
3 *9:5 *9:4 1.388889
4 *9:4 *9:3 0.4735295
5 *9:6 *9:5 8.758824
6 *9:7 *9:6 0.1764706

*END

*D_NET *10 3.058523 //LENGTH 20.577 LUMPCC 0.9830205 DR

*CONN
*P *10 I *L 0 *C 8.463 2.320
*I *38:B1 I *L 0.2877917 *C 6.591 2.140
*I *55:B2 I *L 0.2878673 *C 6.739 2.800
*I *24:A1 I *L 0.3233851 *C 6.147 4.000
*I *41:A1 I *L 0.2963749 *C 5.786 5.800
*I *40:A2 I *L 0.3261601 *C 5.481 6.414
*I *48:A2 I *L 0.3261601 *C 4.593 2.080
*I *39:B2 I *L 0.2801524 *C 1.855 2.260
*I *45:A2 I *L 0.3261601 *C 1.707 2.860
*I *54:A2 I *L 0.3261601 *C 2.003 4.120
*I *42:A2 I *L 0.3261601 *C 2.521 2.080
*I *51:A2 I *L 0.3261601 *C 5.407 2.080
*N *10:12 *C 5.407 2.080
*N *10:13 *C 2.540 2.080
*N *10:14 *C 2.632 2.080
*N *10:15 *C 2.003 4.120
*N *10:16 *C 2.003 4.180
*N *10:17 *C 1.615 4.180
*N *10:18 *C 1.596 4.161
*N *10:19 *C 1.688 2.860
*N *10:20 *C 1.615 2.860
*N *10:21 *C 1.596 2.860
*N *10:22 *C 1.596 2.339
*N *10:23 *C 1.615 2.320
*N *10:24 *C 1.855 2.320
*N *10:25 *C 1.855 2.260
*N *10:26 *C 2.613 2.260
*N *10:27 *C 2.632 2.241
*N *10:28 *C 2.632 2.020
*N *10:29 *C 2.632 2.020
*N *10:30 *C 2.669 1.960
*N *10:31 *C 4.593 1.960
*N *10:32 *C 4.593 2.020
*N *10:33 *C 4.593 2.021
*N *10:34 *C 5.407 2.020
*N *10:35 *C 5.629 6.400
*N *10:36 *C 5.648 6.400
*N *10:37 *C 6.091 6.400
*N *10:38 *C 6.110 6.381
*N *10:39 *C 6.091 5.800
*N *10:40 *C 6.110 5.800
*N *10:41 *C 6.110 5.000
*N *10:42 *C 6.184 5.000
*N *10:43 *C 6.184 4.079
*N *10:44 *C 6.184 4.060
*N *10:45 *C 6.184 4.000
*N *10:46 *C 6.461 4.000
*N *10:47 *C 6.480 3.981
*N *10:48 *C 6.720 2.800
*N *10:49 *C 6.499 2.800
*N *10:50 *C 6.480 2.800
*N *10:51 *C 6.572 2.140
*N *10:52 *C 6.499 2.140
*N *10:53 *C 6.480 2.140
*N *10:54 *C 6.480 2.039
*N *10:55 *C 6.480 2.020
*N *10:56 *C 7.275 2.020
*N *10:57 *C 7.294 2.020
*N *10:58 *C 7.294 2.301
*N *10:59 *C 7.313 2.320

*CAP
0 *10 0.05788136
1 *38:B1 0.001
2 *55:B2 0.001
3 *24:A1 0.001
4 *41:A1 0.01894885
5 *40:A2 0.01168843
6 *48:A2 0.001
7 *39:B2 0.001
8 *45:A2 0.001
9 *54:A2 0.001
10 *42:A2 0.001
11 *51:A2 0.001
12 *10:12 0.006400864
13 *10:13 0.02536279
14 *10:14 0.0288379
15 *10:15 0.00612632
16 *10:16 0.002854034
17 *10:17 1e-06
18 *10:18 0.04463486
19 *10:19 0.01752285
20 *10:20 0.01747149
21 *10:21 0.07324508
22 *10:22 0.02518709
23 *10:23 0.03292057
24 *10:24 0.0378102
25 *10:25 0.07746461
26 *10:26 0.07329708
27 *10:27 0.04706831
28 *10:28 0.0504231
29 *10:29 0.0129949
30 *10:30 0.1719266
31 *10:31 0.1695265
32 *10:32 0.01006729
33 *10:33 0.07801653
34 *10:34 0.1168618
35 *10:35 0.01727736
36 *10:36 0.07129227
37 *10:37 0.07124091
38 *10:38 0.01607006
39 *10:39 0.0181754
40 *10:40 0.03250453
41 *10:41 0.01745878
42 *10:42 0.02290243
43 *10:43 0.01826481
44 *10:44 0.006204314
45 *10:45 0.05160137
46 *10:46 0.04790296
47 *10:47 0.02763042
48 *10:48 0.03405329
49 *10:49 0.03400194
50 *10:50 0.05168235
51 *10:51 0.004410353
52 *10:52 0.004358999
53 *10:53 0.02476597
54 *10:54 0.001625326
55 *10:55 0.08000277
56 *10:56 0.04175778
57 *10:57 0.05120671
58 *10:58 0.04846328
59 *10:59 0.0571079
60 *10:50 *13:9 0.01741757
62 *10:40 *13:5 0.008030369
64 *10:40 *13:8 0.007462718
66 *10:47 *13:8 0.01741757
68 *10:45 *13:6 0.0002019261
70 *10:44 *13:7 0.0002019261
72 *10:43 *13:8 0.01181286
74 *10:43 *13:9 4.630311e-05
76 *10:38 *13:5 0.007462718
78 *10:41 *13:8 0.008030369
80 *10:42 *13:5 0.01181286
82 *10:42 *13:8 4.630311e-05
84 *10:49 *2:3 0.01003425
86 *10:50 *2:5 0.008945365
88 *10:50 *2:6 0.003651287
90 *10:48 *2:2 0.01003425
92 *10:54 *2:6 0.001279347
94 *10:47 *2:5 0.003651287
96 *10:53 *2:5 0.001279347
98 *10:53 *2:6 0.008945365
100 *10:57 *2:6 0.005580102
102 *10:58 *2:5 0.005580102
104 *10:28 *6:4 0.08776651
106 *10:27 *6:3 0.08776651
108 *41:A1 *8:2 0.004133857
110 *41:A1 *8:6 0.002689496
112 *10:39 *8 0.002689496
114 *10:39 *8:3 0.004133857
116 *10:40 *8:4 0.01590621
118 *10:43 *8:5 0.01213093
120 *10:41 *8:5 0.01590621
122 *10:42 *8:4 0.01213093
124 *10:55 *11:15 0.01198232
126 *10:55 *11:14 0.08001713
128 *10:54 *11:17 0.005071309
130 *10:52 *11:14 0.02036994
132 *10:53 *11:16 0.005071309
134 *10:51 *11:15 0.02036994
136 *10:56 *11:15 0.0187084
138 *10:34 *11:13 0.06130873
140 *10:34 *11:14 0.01198232
142 *10:22 *20:19 0.008021533
144 *10:21 *20:20 0.008021533
146 *10:21 *20:19 0.005143321
148 *10:17 *20:22 0.02371423
150 *10:17 *20:23 0.04419591
152 *10:18 *20:20 0.005143321
154 *10:15 *20:16 0.0005947964
156 *10:15 *20:22 0.0004161743
158 *10:16 *20:24 0.04419591
160 *10:16 *20:17 0.02430902
162 *10:16 *20:23 0.0004161743
164 *10:50 *98:7 0.007719432
166 *10:50 *98:9 0.006295512
168 *10:50 *98:8 0.001612712
170 *10:46 *98:12 0.006402364
172 *10:47 *98:10 0.006295512
174 *10:47 *98:8 0.007719432
176 *10:45 *98:11 0.006402364
178 *10:53 *98:7 0.001612712
180 *10:43 *98:9 0.004691902
182 *10:42 *98:10 0.004691902
184 *41:A1 *103:3 0.0004323276
186 *10:39 *103:2 0.0004323276
188 *10:37 *103:2 0.008675599
190 *10:36 *103:3 0.008675599
192 *10:28 *104:4 0.003811702
194 *10:26 *104:7 0.007606118
196 *10:27 *104:5 0.003811702
198 *10:25 *104:6 0.007606118
200 *10:30 *106:4 0.004122679
202 *10:30 *106:7 0.006728442
204 *10:31 *106:8 0.006728442
206 *10:31 *106:3 0.004122679
208 *10:21 *109:6 0.03621523
210 *10:17 *109:4 0.000580419
212 *10:18 *109:5 0.03621523
214 *10:16 *109:3 0.000580419

*RES
0 *10 *10:59 3.382353
1 *10:49 *10:48 0.65
2 *10:50 *10:49 1.388889
3 *10:50 *10:47 3.47353
4 *10:48 *55:B2 2.777778
5 *10:23 *10:22 1.388889
6 *10:22 *10:21 1.532353
7 *10:39 *41:A1 0.8970588
8 *10:40 *10:39 1.388889
9 *10:40 *10:38 1.708824
10 *10:13 *42:A2 2.777778
11 *10:20 *10:19 0.2147059
12 *10:21 *10:20 1.388889
13 *10:21 *10:18 3.826471
14 *10:19 *45:A2 2.777778
15 *10:55 *10:54 1.388889
16 *10:55 *10:34 3.155883
17 *10:54 *10:53 0.2970589
18 *10:46 *10:45 0.814706
19 *10:47 *10:46 1.388889
20 *10:45 *24:A1 2.777778
21 *10:45 *10:44 0.1764706
22 *10:52 *10:51 0.2147059
23 *10:53 *10:52 1.388889
24 *10:53 *10:50 1.941177
25 *10:51 *38:B1 2.777778
26 *10:29 *10:28 1.388889
27 *10:29 *10:14 0.1764706
28 *10:28 *10:27 0.65
29 *10:26 *10:25 2.229412
30 *10:27 *10:26 1.388889
31 *10:12 *51:A2 2.777778
32 *10:17 *10:16 1.141177
33 *10:18 *10:17 1.388889
34 *10:15 *54:A2 2.777778
35 *10:33 *48:A2 2.777778
36 *10:33 *10:32 0.01
37 *10:44 *10:43 1.388889
38 *10:43 *10:42 2.708824
39 *10:25 *39:B2 2.777778
40 *10:25 *10:24 0.1764706
41 *10:56 *10:55 2.338236
42 *10:57 *10:56 1.388889
43 *10:59 *10:58 1.388889
44 *10:58 *10:57 0.8264706
45 *10:37 *10:36 1.302941
46 *10:38 *10:37 1.388889
47 *10:35 *40:A2 0.4352942
48 *10:36 *10:35 2.777778
49 *10:24 *10:23 0.7058824
50 *10:16 *10:15 0.1764706
51 *10:14 *10:13 0.2705882
52 *10:30 *10:29 0.1764706
53 *10:31 *10:30 5.658824
54 *10:32 *10:31 0.1764706
55 *10:34 *10:33 2.394118
56 *10:34 *10:12 0.1764706
57 *10:41 *10:40 2.352941
58 *10:42 *10:41 0.2176471

*END

*D_NET *11 1.294004 //LENGTH 10.264 LUMPCC 0.627945 DR

*CONN
*P *11 I *L 0 *C 8.463 0.760
*I *38:A I *L 0.2724729 *C 6.295 2.080
*I *39:B1 I *L 0.2877917 *C 1.707 2.140
*N *11:3 *C 1.707 2.140
*N *11:4 *C 1.744 2.200
*N *11:5 *C 1.744 2.175
*N *11:6 *C 1.762 2.188
*N *11:7 *C 1.766 2.188
*N *11:8 *C 2.854 2.188
*N *11:9 *C 2.854 2.114
*N *11:10 *C 5.719 2.114
*N *11:11 *C 5.722 2.114
*N *11:12 *C 5.740 2.080
*N *11:13 *C 5.759 2.080
*N *11:14 *C 6.333 2.080
*N *11:15 *C 6.609 2.080
*N *11:16 *C 6.628 2.061
*N *11:17 *C 6.628 0.760
*N *11:18 *C 6.647 0.760

*CAP
0 *11 0.07024021
1 *38:A 0.001
2 *39:B1 0.001
3 *11:3 0.006914216
4 *11:4 0.007112091
5 *11:5 0.02062862
6 *11:6 0.02508141
7 *11:7 0.05173385
8 *11:8 0.05840214
9 *11:9 0.09544998
10 *11:10 0.0887817
11 *11:11 0.009984987
12 *11:12 0.008310449
13 *11:13 0.04151488
14 *11:14 0.05728154
15 *11:15 0.01494182
16 *11:16 0.01778303
17 *11:17 0.02043097
18 *11:18 0.06946675
19 *11:10 *1:22 0.01024698
21 *11:10 *1:26 0.004010903
23 *11:10 *1:37 0.01392017
25 *11:15 *1:17 1.214071e-05
27 *11:16 *1:21 0.02074186
29 *11:17 *1:20 0.02074186
31 *11:14 *1:18 1.214071e-05
33 *11:9 *1:26 0.01024698
35 *11:9 *1:36 0.01392017
37 *11:9 *1:37 0.004010903
39 *11:16 *2:5 0.09566144
41 *11:17 *2:6 0.09566144
43 *11:6 *5:3 0.04070748
45 *11:5 *5:4 0.04070748
47 *11:13 *10:34 0.06130873
49 *11:15 *10:51 0.02036994
51 *11:15 *10:55 0.01198232
53 *11:15 *10:56 0.0187084
55 *11:16 *10:53 0.005071309
57 *11:17 *10:54 0.005071309
59 *11:14 *10:34 0.01198232
61 *11:14 *10:52 0.02036994
63 *11:14 *10:55 0.08001713
65 *11:6 *21:4 0.01123079
67 *11:5 *21:5 0.01123079

*RES
0 *11 *11:18 5.341177
1 *11:13 *11:12 1.388889
2 *11:12 *11:11 0.1
3 *11:11 *11:10 0.3472222
4 *11:10 *11:9 4.774167
5 *11:6 *11:5 0.0382353
6 *11:7 *11:6 0.3472222
7 *11:15 *11:14 0.8132353
8 *11:16 *11:15 1.388889
9 *11:18 *11:17 1.388889
10 *11:17 *11:16 3.826471
11 *11:14 *38:A 2.777778
12 *11:14 *11:13 1.686765
13 *11:4 *11:3 0.1764706
14 *11:5 *11:4 1.388889
15 *11:3 *39:B1 2.777778
16 *11:8 *11:7 1.814167
17 *11:9 *11:8 0.1233333

*END

*D_NET *12 1.242829 //LENGTH 9.256 LUMPCC 0.7028921 DR

*CONN
*I *25:X O *L 0 *C 4.889 5.080
*I *38:B2 I *L 0.2801524 *C 6.739 2.260
*P *12 O *L 0 *C 7.701 7.900
*N *12:3 *C 7.682 7.900
*N *12:4 *C 7.017 7.900
*N *12:5 *C 6.998 7.881
*N *12:6 *C 6.998 5.020
*N *12:7 *C 6.924 5.020
*N *12:8 *C 6.758 2.260
*N *12:9 *C 6.905 2.260
*N *12:10 *C 6.924 2.279
*N *12:11 *C 6.924 5.020
*N *12:12 *C 6.905 5.020
*N *12:13 *C 5.555 5.020
*N *12:14 *C 5.555 5.080
*N *12:15 *C 4.908 5.080

*CAP
0 *25:X 0.001
1 *38:B2 0.001
2 *12 0.001
3 *12:3 0.02911515
4 *12:4 0.0290638
5 *12:5 0.07197122
6 *12:6 0.07591988
7 *12:7 0.001195472
8 *12:8 0.02284718
9 *12:9 0.02279583
10 *12:10 0.03959947
11 *12:11 0.04397015
12 *12:12 0.04683637
13 *12:13 0.05380407
14 *12:14 0.05336738
15 *12:15 0.04645103
16 *12:5 *13:5 0.02107117
18 *12:6 *13:8 0.02107117
20 *12:12 *31:CK 0.0009955305
22 *12:11 *1:12 0.04817317
24 *12:11 *1:14 0.004870643
26 *12:10 *1:14 0.04817317
28 *12:10 *1:15 0.003800905
30 *12:5 *1:10 0.02573455
32 *12:5 *1:12 0.003704026
34 *12:13 *1:11 0.0009955305
36 *12:7 *1:12 0.001069739
38 *12:6 *1:12 0.02573455
40 *12:6 *1:14 0.003704026
42 *12:12 *31:Q 0.102021
44 *12:15 *19:27 0.00432193
46 *12:14 *19:28 0.00432193
48 *12:13 *19:33 0.102021
50 *12:11 *80:4 0.01940562
52 *12:10 *80:3 0.01940562
54 *12:11 *82:8 0.06583104
56 *12:10 *82:9 0.06583104
58 *12:11 *87:37 0.05410147
60 *12:9 *87:40 0.001215937
62 *12:10 *87:38 0.05410147
64 *12:8 *87:39 0.001215937

*RES
0 *25:X *12:15 2.777778
1 *12:12 *12:11 1.388889
2 *12:11 *12:10 8.061765
3 *12:11 *12:7 0.01
4 *12:11 *12:6 0.2176471
5 *12:15 *12:14 1.902941
6 *12:9 *12:8 0.432353
7 *12:10 *12:9 1.388889
8 *12:8 *38:B2 2.777778
9 *12:4 *12:3 1.955883
10 *12:5 *12:4 1.388889
11 *12:3 *12 2.777778
12 *12:14 *12:13 0.1764706
13 *12:13 *12:12 3.970588
14 *12:6 *12:5 8.414706

*END

*D_NET *14 1.41953 //LENGTH 9.923 LUMPCC 0.6096306 DR

*CONN
*I *28:Q O *L 0 *C 6.340 1.480
*I *51:B1 I *L 0.3149807 *C 5.185 2.140
*I *68:A1 I *L 0.503657 *C 5.407 4.600
*I *69:A1 I *L 0.2815 *C 6.073 4.600
*P *14 O *L 0 *C 4.297 7.900
*N *14:5 *C 4.316 7.900
*N *14:6 *C 5.351 7.900
*N *14:7 *C 5.370 7.881
*N *14:8 *C 6.054 4.600
*N *14:9 *C 5.436 4.600
*N *14:10 *C 5.370 4.540
*N *14:11 *C 5.370 4.540
*N *14:12 *C 5.204 2.140
*N *14:13 *C 5.351 2.140
*N *14:14 *C 5.370 2.140
*N *14:15 *C 5.370 1.499
*N *14:16 *C 5.389 1.480

*CAP
0 *28:Q 0.0986975
1 *51:B1 0.001
2 *68:A1 0.001
3 *69:A1 0.001
4 *14 0.001
5 *14:5 0.04250813
6 *14:6 0.04245677
7 *14:7 0.11287
8 *14:8 0.03866118
9 *14:9 0.04251185
10 *14:10 0.006401608
11 *14:11 0.1782277
12 *14:12 0.03708922
13 *14:13 0.03703786
14 *14:14 0.06850971
15 *14:15 0.003003679
16 *14:16 0.09792405
17 *28:Q *3:5 0.002913729
19 *14:11 *3:3 0.003362277
21 *14:16 *3:6 0.002913729
23 *14:15 *3:4 0.02094881
25 *14:14 *3:3 0.02094881
27 *14:14 *3:4 0.003362277
29 *14:11 *79:5 0.011459
31 *14:11 *79:6 0.08418379
33 *14:9 *79:4 0.0002627287
35 *14:9 *79:8 0.001748926
37 *14:8 *79:3 0.0002627287
39 *14:8 *79:7 0.001748926
41 *14:14 *79:5 0.08418379
43 *14:7 *79:6 0.011459
45 *28:Q *107:2 0.001946393
47 *14:11 *107:5 0.01133806
49 *14:16 *107:3 0.001946393
51 *14:15 *107:4 0.04635434
53 *14:13 *107:6 0.001501757
55 *14:14 *107:4 0.01133806
57 *14:14 *107:5 0.04635434
59 *14:12 *107:7 0.001501757
61 *14:9 *115:5 0.0305608
63 *14:8 *115:4 0.0305608
65 *14:9 *117:3 0.03058363
67 *14:8 *117:2 0.03058363
69 *14:11 *118:40 0.02411467
71 *14:11 *118:16 0.03006301
73 *14:13 *118:38 0.0001513945
75 *14:13 *118:17 0.003321955
77 *14:14 *118:39 0.006798255
79 *14:14 *118:40 0.01102362
81 *14:12 *118:37 0.0001513945
83 *14:12 *118:18 0.003321955
85 *14:7 *118:11 0.01903939
87 *14:7 *118:16 0.01731641

*RES
0 *28:Q *14:16 2.797059
1 *14:10 *14:9 0.1764706
2 *14:11 *14:10 1.388889
3 *14:11 *14:7 9.826471
4 *14:9 *68:A1 2.777778
5 *14:9 *14:8 1.817647
6 *14:8 *69:A1 2.777778
7 *14:16 *14:15 1.388889
8 *14:15 *14:14 1.885294
9 *14:13 *14:12 0.432353
10 *14:14 *14:13 1.388889
11 *14:14 *14:11 7.058824
12 *14:12 *51:B1 2.777778
13 *14:6 *14:5 3.044118
14 *14:7 *14:6 1.388889
15 *14:5 *14 2.777778

*END

*D_NET *15 1.472262 //LENGTH 10.090 LUMPCC 0.5732455 DR

*CONN
*I *29:Q O *L 0 *C 4.786 1.480
*I *48:B1 I *L 0.3149807 *C 4.371 2.140
*I *67:A2 I *L 0.2500283 *C 4.075 4.567
*I *66:A2 I *L 0.2927814 *C 3.705 5.140
*P *15 O *L 0 *C 2.669 7.900
*N *15:5 *C 2.688 7.900
*N *15:6 *C 4.019 7.900
*N *15:7 *C 4.038 7.881
*N *15:8 *C 3.724 5.140
*N *15:9 *C 4.019 5.140
*N *15:10 *C 4.038 5.140
*N *15:11 *C 4.075 4.600
*N *15:12 *C 4.075 4.600
*N *15:13 *C 4.038 4.540
*N *15:14 *C 4.038 4.540
*N *15:15 *C 4.352 2.140
*N *15:16 *C 4.260 2.140
*N *15:17 *C 4.260 2.020
*N *15:18 *C 4.057 2.020
*N *15:19 *C 4.038 2.020
*N *15:20 *C 4.038 1.499
*N *15:21 *C 4.057 1.480

*CAP
0 *29:Q 0.08755843
1 *48:B1 0.001
2 *67:A2 0.01195648
3 *66:A2 0.001
4 *15 0.001
5 *15:5 0.0533437
6 *15:6 0.05329235
7 *15:7 0.09445342
8 *15:8 0.05757317
9 *15:9 0.05752181
10 *15:10 0.1043437
11 *15:11 0.01123438
12 *15:12 0.009394266
13 *15:13 0.00949279
14 *15:14 0.05178449
15 *15:15 0.02033235
16 *15:16 0.03248803
17 *15:17 0.04288059
18 *15:18 0.03067355
19 *15:19 0.06346728
20 *15:20 0.01744063
21 *15:21 0.08678497
22 *15:20 *4:4 0.008583972
24 *15:14 *4:3 0.004177771
26 *15:19 *4:3 0.008583972
28 *15:19 *4:4 0.004177771
30 *15:14 *84:9 0.09540197
32 *15:19 *84:8 0.09540197
34 *15:14 *93:5 0.09659077
36 *15:18 *93:2 0.0008940845
38 *15:19 *93:4 0.09659077
40 *15:17 *48:C 0.0008940845
42 *15:17 *93:2 0.0005391173
44 *15:16 *93:3 0.0005391173
46 *15:14 *94:5 0.007209694
48 *15:14 *94:6 0.0134191
50 *15:19 *94:5 0.0134191
52 *15:10 *94:6 0.007209694
54 *15:14 *100:5 0.01776488
56 *15:14 *100:6 0.002853936
58 *15:19 *100:5 0.002853936
60 *15:10 *100:5 0.0226847
62 *15:10 *100:6 0.01776488
64 *15:7 *100:6 0.0226847
66 *15:20 *106:5 0.00863282
68 *15:14 *106:6 0.001125733
70 *15:18 *106:7 0.006744167
72 *15:19 *106:5 0.001125733
74 *15:19 *106:6 0.00863282
76 *15:17 *106:8 0.006744167

*RES
0 *29:Q *15:21 2.144118
1 *15:21 *15:20 1.388889
2 *15:20 *15:19 1.532353